geometry optimzed in LAMMPS
_audit_creation_date              2020-11-30 
_audit_creation_method            'lammps2cif' 
_symmetry_space_group_name_H-M    'P1' 
_symmetry_Int_Tables_number       1 
_symmetry_cell_setting            triclinic 
loop_ 
_symmetry_equiv_pos_as_xyz 
  x,y,z 
_cell_length_a                    34.88844656 
_cell_length_b                    34.10227599162943 
_cell_length_c                    34.38112450515173 
_cell_angle_alpha                 90.63072931134096 
_cell_angle_beta                  89.1331155349946 
_cell_angle_gamma                 90.95306928812315 
loop_ 
_atom_site_label 
_atom_site_type_symbol 
_atom_site_fract_x 
_atom_site_fract_y 
_atom_site_fract_z 
_atom_site_charge 
O1          O  0.30711648  0.67846611  0.80526071    -0.80200
O2          O  0.31091140  0.81944878  0.74888339    -0.80200
O3          O  0.26922382  0.71001182  0.67884375    -0.80300
O4          O  0.25834703  0.78908562  0.83740882    -0.80200
O5          O  0.31398023  0.75222008  0.69668149    -0.80300
O6          O  0.31063878  0.76169798  0.81424755    -0.80200
O7          O  0.26030735  0.84285304  0.78119145    -0.80200
O8          O  0.29104155  0.68182711  0.74271145    -0.80300
C9          C  0.31218906  0.66769542  0.76974236     1.09500
C10         C  0.29588980  0.84502353  0.77133072     1.09300
C11         C  0.30258010  0.72465601  0.67391211     1.09500
C12         C  0.29414238  0.78456142  0.83888211     1.09400
O13         O  0.24076383  0.72020282  0.83631163    -0.80200
O14         O  0.23982350  0.77426611  0.67074225    -0.80300
O15         O  0.21732291  0.66029450  0.72043082    -0.80200
O16         O  0.19020138  0.81079667  0.74887225    -0.80200
O17         O  0.23795707  0.83765589  0.71507155    -0.80300
O18         O  0.23366139  0.67685645  0.78077679    -0.80200
O19         O  0.19167224  0.75102100  0.81082792    -0.80200
O20         O  0.19634488  0.73779560  0.70191599    -0.80300
Co21       Co  0.27567465  0.72112484  0.78951090     1.51500
Co22       Co  0.27594517  0.79366798  0.71098863     1.51700
Co23       Co  0.23977673  0.71132796  0.72884219     1.51600
Co24       Co  0.22526794  0.79607133  0.79179976     1.51500
O25         O  0.25379129  0.76089925  0.75482247    -1.42200
C26         C  0.20504243  0.72778781  0.83647845     1.09400
C27         C  0.20632899  0.75910908  0.67276828     1.09500
C28         C  0.21569578  0.65403327  0.75694371     1.09400
C29         C  0.20237672  0.83593328  0.72407039     1.09400
O30         O  0.74047973  0.17818312  0.68091336    -0.80200
O31         O  0.75211711  0.18239844  0.79748329    -0.80200
O32         O  0.82497676  0.23214092  0.69679286    -0.80300
O33         O  0.66745321  0.23248465  0.78121545    -0.80200
O34         O  0.80451725  0.18190142  0.73085577    -0.80300
O35         O  0.68770639  0.18132648  0.74787564    -0.80200
O36         O  0.72537310  0.23307745  0.82677492    -0.80200
O37         O  0.76768220  0.22787024  0.65026988    -0.80300
C38         C  0.75967797  0.19128682  0.65191103     1.09500
C39         C  0.73311891  0.19674725  0.82604796     1.09300
C40         C  0.82731998  0.19626205  0.70530215     1.09500
C41         C  0.66412470  0.19642940  0.77234052     1.09400
O42         O  0.66122319  0.25366475  0.71703236    -0.80200
O43         O  0.83246277  0.25814300  0.75884203    -0.80300
O44         O  0.73813310  0.30341053  0.67844970    -0.80200
O45         O  0.75557307  0.30621909  0.79505888    -0.80200
O46         O  0.78827582  0.25757590  0.81842645    -0.80300
O47         O  0.70547700  0.25224420  0.65675668    -0.80200
O48         O  0.69041528  0.30457877  0.74397038    -0.80200
O49         O  0.80236515  0.30624018  0.73031372    -0.80300
Co50       Co  0.70322156  0.21659650  0.70404739     1.51500
Co51       Co  0.78992477  0.21984765  0.77291149     1.51700
Co52       Co  0.77986609  0.26720187  0.69327612     1.51600
Co53       Co  0.71308424  0.26877938  0.78243338     1.51500
O54         O  0.74643351  0.24281466  0.73822166    -1.42200
C55         C  0.66216484  0.29001771  0.72539510     1.09400
C56         C  0.83090286  0.29403358  0.74908038     1.09500
C57         C  0.71424265  0.28866117  0.65466850     1.09400
C58         C  0.78043268  0.29379830  0.81850343     1.09400
O59         O  0.67549405  0.74590276  0.19121838    -0.80200
O60         O  0.79763567  0.73440407  0.18365238    -0.80200
O61         O  0.71180043  0.82747754  0.22829795    -0.80300
O62         O  0.76457649  0.65728945  0.23560126    -0.80200
O63         O  0.74032894  0.79627050  0.17960974    -0.80300
O64         O  0.73190445  0.68163363  0.18711225    -0.80200
O65         O  0.82080005  0.70737891  0.23573497    -0.80200
O66         O  0.65668573  0.77889471  0.24280732    -0.80300
C67         C  0.65165064  0.76875076  0.20760929     1.09500
C68         C  0.82371469  0.71481314  0.19962698     1.09300
C69         C  0.71934550  0.82427275  0.19209738     1.09500
C70         C  0.75545241  0.65632549  0.20005608     1.09400
O71         O  0.70156061  0.65851951  0.26036072    -0.80200
O72         O  0.77607637  0.83035474  0.24695908    -0.80300
O73         O  0.69086505  0.75270535  0.31403276    -0.80200
O74         O  0.79433442  0.74471513  0.30641840    -0.80200
O75         O  0.82223909  0.77319397  0.25560113    -0.80300
O76         O  0.65689707  0.71724426  0.27191730    -0.80200
O77         O  0.73368803  0.68328155  0.30936719    -0.80200
O78         O  0.74975610  0.81086569  0.30161704    -0.80300
Co79       Co  0.69537151  0.70504863  0.22713740     1.51500
Co80       Co  0.77983759  0.77937006  0.21710666     1.51700
Co81       Co  0.70586051  0.78822367  0.27130097     1.51600
Co82       Co  0.77480106  0.70238457  0.27156955     1.51500
O83         O  0.73902830  0.74352931  0.24635506    -1.42200
C84         C  0.71021463  0.65750324  0.29578300     1.09400
C85         C  0.77006219  0.83582095  0.28303905     1.09500
C86         C  0.66246478  0.73022614  0.30677897     1.09400
C87         C  0.82059703  0.76706472  0.29206185     1.09400
C88         C  0.52675568  0.99585053  0.02756701     0.02200
C89         C  0.49493791  0.96943611  0.03010106     0.02200
C90         C  0.46507058  0.97149388  0.00274613     0.02200
C91         C  0.46638704  0.00165530  0.97413290     0.02200
C92         C  0.49791751  0.02876440  0.97217276     0.02200
C93         C  0.52800180  0.02611134  0.99933625     0.02200
N94         N  0.66312021  0.99187510  0.11717608    -0.03600
C95         C  0.69235175  0.96676546  0.10987083    -0.01000
C96         C  0.72589626  0.98747911  0.10238900    -0.23900
C97         C  0.71738160  0.02639543  0.10682210    -0.24100
C98         C  0.67922385  0.02844563  0.11847550    -0.01100
H99         H  0.75447733  0.97577995  0.09996759     0.12700
H100        H  0.73859670  0.04978819  0.10940169     0.12700
N101        N  0.63830147  0.15494634  0.99099813    -0.03600
C102        C  0.63562902  0.18679445  0.01541293    -0.01000
C103        C  0.62983889  0.22049296  0.99476758    -0.23900
C104        C  0.63198273  0.21006916  0.95641958    -0.24100
C105        C  0.64051103  0.17050237  0.95450820    -0.01100
H106        H  0.62945655  0.25023141  0.00607385     0.12700
H107        H  0.63558966  0.23087271  0.93309276     0.12700
N108        N  0.33363754  0.00371448  0.87805408    -0.03600
C109        C  0.30270267  0.02618997  0.88732256    -0.01000
C110        C  0.27152945  0.00252588  0.89653639    -0.23900
C111        C  0.28270806  0.96487648  0.89011521    -0.24100
C112        C  0.31969478  0.96631259  0.87492008    -0.01100
H113        H  0.24198278  0.01093999  0.90007851     0.12700
H114        H  0.26264062  0.94095676  0.88790592     0.12700
N115        N  0.49347023  0.13870599  0.84383662    -0.03600
C116        C  0.45736757  0.14489626  0.83016323    -0.01000
C117        C  0.45540444  0.13220479  0.79185962    -0.23900
C118        C  0.49191084  0.12512348  0.77933503    -0.24100
C119        C  0.51498331  0.13098296  0.81109836    -0.01100
H120        H  0.43176028  0.13664380  0.77261195     0.12700
H121        H  0.50084564  0.12243308  0.74918340     0.12700
N122        N  0.49376469  0.86909096  0.16512722    -0.03600
C123        C  0.46864864  0.87676754  0.19502093    -0.01000
C124        C  0.48766314  0.89419543  0.22580925    -0.23900
C125        C  0.52601727  0.89146501  0.21716007    -0.24100
C126        C  0.52896052  0.87123136  0.18205318    -0.01100
H127        H  0.47574403  0.90065437  0.25436781     0.12700
H128        H  0.54841599  0.89457084  0.23849294     0.12700
N129        N  0.33651027  0.86082304  0.01660607    -0.03600
C130        C  0.31048932  0.85682710  0.04678841    -0.01000
C131        C  0.28028108  0.83267027  0.03554771    -0.23900
C132        C  0.28821512  0.81978733  0.99878933    -0.24100
C133        C  0.32266524  0.83694344  0.98768283    -0.01100
H134        H  0.25694802  0.82191840  0.05385997     0.12700
H135        H  0.27038961  0.80026953  0.98148233     0.12700
C136        C  0.96134013  0.50328935  0.02581591     0.02200
C137        C  0.96164871  0.47392759  0.99557859     0.02200
C138        C  0.99146280  0.47482524  0.96648675     0.02200
C139        C  0.02266109  0.50261036  0.96965198     0.02200
C140        C  0.02294672  0.53098121  0.00052244     0.02200
C141        C  0.99198439  0.53176316  0.02823116     0.02200
N142        N  0.13484393  0.66014555  0.00805919    -0.03600
C143        C  0.13548179  0.69293272  0.98508907    -0.01000
C144        C  0.14009846  0.72623946  0.00778936    -0.23900
C145        C  0.14343059  0.71427974  0.04524693    -0.24100
C146        C  0.14303984  0.67367206  0.04480174    -0.01100
H147        H  0.14572548  0.75579012  0.99785069     0.12700
H148        H  0.15292606  0.73299539  0.06899732     0.12700
N149        N  0.14559596  0.49423737  0.85382588    -0.03600
C150        C  0.14387524  0.51813035  0.82206721    -0.01000
C151        C  0.13487990  0.49738005  0.78914034    -0.23900
C152        C  0.13545870  0.45907397  0.79910617    -0.24100
C153        C  0.14579568  0.45702560  0.83795303    -0.01100
H154        H  0.13456289  0.50837264  0.75972601     0.12700
H155        H  0.13774378  0.43686798  0.77782928     0.12700
N156        N  0.99186284  0.62429970  0.17133806    -0.03600
C157        C  0.95610099  0.62824311  0.18756777    -0.01000
C158        C  0.95692831  0.61843447  0.22653727    -0.23900
C159        C  0.99450877  0.61383890  0.23587947    -0.24100
C160        C  0.01566077  0.61964116  0.20211868    -0.01100
H161        H  0.93383511  0.62224107  0.24757131     0.12700
H162        H  0.00538940  0.61215209  0.26511509     0.12700
N163        N  0.83354019  0.48922247  0.13526615    -0.03600
C164        C  0.82273251  0.45088137  0.14099644    -0.01000
C165        C  0.78395016  0.44630264  0.13358728    -0.23900
C166        C  0.76945234  0.48262651  0.12818497    -0.24100
C167        C  0.79992871  0.50871748  0.13014309    -0.01100
H168        H  0.76649515  0.42061516  0.14031341     0.12700
H169        H  0.73927714  0.48938623  0.12886476     0.12700
N170        N  0.99066580  0.36853097  0.83129060    -0.03600
C171        C  0.96616945  0.37718745  0.80149067    -0.01000
C172        C  0.98547823  0.39300841  0.77004266    -0.23900
C173        C  0.02296323  0.38675389  0.77628923    -0.24100
C174        C  0.02545020  0.36888761  0.81227418    -0.01100
H175        H  0.97350490  0.39949424  0.74199465     0.12700
H176        H  0.04515439  0.38912308  0.75404449     0.12700
N177        N  0.84288443  0.34977452  0.99231114    -0.03600
C178        C  0.83648516  0.32031282  0.01879833    -0.01000
C179        C  0.80879594  0.29416134  0.00582240    -0.23900
C180        C  0.79642297  0.30759836  0.97142351    -0.24100
C181        C  0.81766570  0.34098340  0.96295586    -0.01100
H182        H  0.79645088  0.26956316  0.02157541     0.12700
H183        H  0.77522938  0.29335171  0.95320865     0.12700
C184        C  0.52356798  0.46688043  0.50715526     0.02200
C185        C  0.49532673  0.46693856  0.53795458     0.02200
C186        C  0.46795583  0.49773759  0.54021751     0.02200
C187        C  0.46745026  0.52654228  0.51015432     0.02200
C188        C  0.49621521  0.52681514  0.47992089     0.02200
C189        C  0.52417000  0.49666240  0.47820962     0.02200
N190        N  0.49188233  0.35327302  0.66478078    -0.03600
C191        C  0.51534414  0.35558842  0.69613449    -0.01000
C192        C  0.49471800  0.35183425  0.73028573    -0.23900
C193        C  0.45808556  0.34298305  0.72001766    -0.24100
C194        C  0.45712744  0.34089209  0.67971956    -0.01100
H195        H  0.50625406  0.34841137  0.75908909     0.12700
H196        H  0.43738784  0.32977808  0.73980269     0.12700
N197        N  0.36946995  0.66144683  0.50177208    -0.03600
C198        C  0.36009449  0.67234649  0.46506245    -0.01000
C199        C  0.36247298  0.71276010  0.46236447    -0.23900
C200        C  0.36858081  0.72729388  0.49900329    -0.24100
C201        C  0.37163422  0.69540413  0.52313514    -0.01100
H202        H  0.35292071  0.72995035  0.43818212     0.12700
H203        H  0.36466637  0.75755583  0.50767180     0.12700
N204        N  0.62591456  0.48200542  0.34171749    -0.03600
C205        C  0.64945756  0.51007004  0.32527682    -0.01000
C206        C  0.66210755  0.49838814  0.28889958    -0.23900
C207        C  0.64730437  0.46194204  0.28239488    -0.24100
C208        C  0.62663634  0.45137119  0.31543340    -0.01100
H209        H  0.68059466  0.51483937  0.26919560     0.12700
H210        H  0.65514756  0.44306217  0.25811883     0.12700
N211        N  0.50738325  0.63789143  0.35240282    -0.03600
C212        C  0.48605243  0.63807823  0.31935534    -0.01000
C213        C  0.50904370  0.64589935  0.28726199    -0.23900
C214        C  0.54496744  0.65303104  0.30070196    -0.24100
C215        C  0.54321315  0.65035517  0.34091508    -0.01100
H216        H  0.49994740  0.65062249  0.25774926     0.12700
H217        H  0.56841652  0.66542439  0.28358938     0.12700
N218        N  0.35377405  0.50869837  0.66656080    -0.03600
C219        C  0.33899227  0.54412825  0.67819221    -0.01000
C220        C  0.29928501  0.54215545  0.67885977    -0.23900
C221        C  0.28878471  0.50431303  0.67128829    -0.24100
C222        C  0.32220132  0.48427838  0.66475157    -0.01100
H223        H  0.28021208  0.56438415  0.69027542     0.12700
H224        H  0.26012661  0.49194377  0.67421021     0.12700
N225        N  0.61197491  0.32496826  0.49627499    -0.03600
C226        C  0.61547937  0.30810982  0.53181844    -0.01000
C227        C  0.60511361  0.26889063  0.52922645    -0.23900
C228        C  0.59897933  0.26049797  0.49072790    -0.24100
C229        C  0.60593720  0.29472151  0.47042658    -0.01100
H230        H  0.60912086  0.24714858  0.55145367     0.12700
H231        H  0.59775477  0.23116595  0.47838284     0.12700
C232        C  0.04562702  0.99997736  0.51114866     0.02200
C233        C  0.04425425  0.96783833  0.48370290     0.02200
C234        C  0.01655958  0.96736942  0.45313271     0.02200
C235        C  0.99016184  0.99897659  0.45098746     0.02200
C236        C  0.98969445  0.02910472  0.48028653     0.02200
C237        C  0.01798762  0.03055393  0.50987239     0.02200
N238        N  0.00245532  0.14896117  0.63511705    -0.03600
C239        C  0.02871670  0.17886893  0.64120882    -0.01000
C240        C  0.01490372  0.20605793  0.66765653    -0.23900
C241        C  0.98010035  0.19282152  0.67986874    -0.24100
C242        C  0.97233034  0.15838171  0.65975074    -0.01100
H243        H  0.03033398  0.23106383  0.67974886     0.12700
H244        H  0.96122386  0.20783939  0.70019969     0.12700
N245        N  0.13023727  0.00077589  0.65445371    -0.03600
C246        C  0.13286840  0.03845101  0.66836088    -0.01000
C247        C  0.11897789  0.03891267  0.70638403    -0.23900
C248        C  0.11520553  0.00091582  0.71809699    -0.24100
C249        C  0.12331814  0.97760067  0.68609600    -0.01100
H250        H  0.12129296  0.06306205  0.72668268     0.12700
H251        H  0.11306803  0.99218409  0.74815220     0.12700
N252        N  0.12520997  0.82352231  0.51140403    -0.03600
C253        C  0.11567463  0.79566535  0.53845702    -0.01000
C254        C  0.11042004  0.75987993  0.51972783    -0.23900
C255        C  0.12208673  0.76470561  0.48190613    -0.24100
C256        C  0.13243295  0.80368835  0.47755299    -0.01100
H257        H  0.10736419  0.73166759  0.53370089     0.12700
H258        H  0.12861846  0.74105986  0.46173346     0.12700
N259        N  0.86907939  0.14397456  0.49710856    -0.03600
C260        C  0.87260108  0.17491173  0.47253413    -0.01000
C261        C  0.88131489  0.20897326  0.49207781    -0.23900
C262        C  0.87702609  0.20021184  0.53031560    -0.24100
C263        C  0.86433024  0.16133367  0.53293272    -0.01100
H264        H  0.88393150  0.23816166  0.48017320     0.12700
H265        H  0.87389008  0.22303315  0.55125975     0.12700
N266        N  0.88433957  0.99012587  0.32308307    -0.03600
C267        C  0.88991246  0.01332455  0.29136613    -0.01000
C268        C  0.89937961  0.99063067  0.25927124    -0.23900
C269        C  0.89648052  0.95237937  0.27097144    -0.24100
C270        C  0.88178251  0.95281565  0.30881420    -0.01100
H271        H  0.90123574  0.99981693  0.22930469     0.12700
H272        H  0.89469422  0.92781578  0.25083606     0.12700
N273        N  0.98991857  0.82202340  0.36180286    -0.03600
C274        C  0.01748342  0.80310143  0.34012119    -0.01000
C275        C  0.00603736  0.76562258  0.32997339    -0.23900
C276        C  0.97062415  0.76008474  0.34538631    -0.24100
C277        C  0.95999357  0.79513875  0.36280778    -0.01100
H278        H  0.02241727  0.74416154  0.31362364     0.12700
H279        H  0.95229316  0.73487467  0.33927774     0.12700
O280        O  0.25426637  0.18838348  0.69414561    -0.80200
O281        O  0.26141012  0.30522617  0.69293212    -0.80200
O282        O  0.16532414  0.21682648  0.73518740    -0.80300
O283        O  0.32500864  0.26195793  0.72488837    -0.80200
O284        O  0.19477224  0.24824769  0.68659812    -0.80300
O285        O  0.33365091  0.19914511  0.70903769    -0.80200
O286        O  0.29276010  0.32452572  0.74477787    -0.80200
O287        O  0.21807743  0.16257871  0.74110287    -0.80300
C288        C  0.23118012  0.16141301  0.70624483     1.09500
C289        C  0.28557263  0.32871489  0.70909698     1.09300
C290        C  0.16900018  0.22359001  0.69907600     1.09500
C291        C  0.34275542  0.23545599  0.70480438     1.09400
O292        O  0.32331170  0.22449964  0.78398295    -0.80200
O293        O  0.16611352  0.28333117  0.75440325    -0.80300
O294        O  0.24268658  0.19184022  0.81504995    -0.80200
O295        O  0.25572442  0.29954395  0.81445822    -0.80200
O296        O  0.22721003  0.33053379  0.76648893    -0.80300
O297        O  0.28133912  0.16730194  0.76937096    -0.80200
O298        O  0.33491067  0.28663079  0.80070603    -0.80200
O299        O  0.18098005  0.25284799  0.80829483    -0.80300
Co300      Co  0.28681867  0.21407431  0.73555758     1.51500
Co301      Co  0.21488306  0.28910644  0.72509475     1.51700
Co302      Co  0.20446696  0.20876618  0.77545802     1.51600
Co303      Co  0.28864748  0.27437031  0.77317512     1.51500
O304        O  0.24317181  0.24683126  0.75241059    -1.42200
C305        C  0.34273968  0.25047623  0.80350299     1.09400
C306        C  0.16067283  0.27793400  0.79027564     1.09500
C307        C  0.26803834  0.16687153  0.80410145     1.09400
C308        C  0.23595274  0.32822278  0.80251596     1.09400
O309        O  0.76530890  0.14986704  0.27430192    -0.80200
O310        O  0.75872799  0.32688175  0.22809182    -0.80200
O311        O  0.80987549  0.24636707  0.19021914    -0.80300
O312        O  0.81133942  0.23564166  0.30612218    -0.80200
O313        O  0.75976331  0.27821306  0.16980618    -0.80300
O314        O  0.76489111  0.19934360  0.33106914    -0.80200
O315        O  0.80861632  0.29953418  0.25398970    -0.80200
O316        O  0.81239130  0.18148837  0.24470868    -0.80300
C317        C  0.80064176  0.15253920  0.26505506     1.09500
C318        C  0.79445249  0.32758304  0.23539537     1.09300
C319        C  0.79530437  0.27079957  0.16698121     1.09500
C320        C  0.79976508  0.21087790  0.33103097     1.09400
O321        O  0.69084651  0.23011793  0.31106316    -0.80200
O322        O  0.68945335  0.23863067  0.19384387    -0.80300
O323        O  0.73999217  0.15410504  0.21138396    -0.80200
O324        O  0.73459495  0.31910121  0.29180438    -0.80200
O325        O  0.68779536  0.29096060  0.25953604    -0.80300
O326        O  0.69106708  0.17545733  0.24639207    -0.80200
O327        O  0.73845816  0.26172783  0.33907162    -0.80200
O328        O  0.73874150  0.21221943  0.16370335    -0.80300
Co329      Co  0.72801806  0.19299085  0.28712418     1.51500
Co330      Co  0.72431379  0.27958690  0.21629812     1.51700
Co331      Co  0.77499226  0.20209316  0.20691802     1.51600
Co332      Co  0.77320314  0.27548188  0.29344862     1.51500
O333        O  0.75021046  0.23746076  0.25079687    -1.42200
C334        C  0.70340175  0.25101466  0.33919694     1.09400
C335        C  0.70322899  0.21980731  0.16485379     1.09500
C336        C  0.70477777  0.15132722  0.22162514     1.09400
C337        C  0.69897250  0.31579637  0.28492769     1.09400
O338        O  0.30927693  0.67269240  0.26167405    -0.80200
O339        O  0.19146006  0.67107572  0.25815624    -0.80200
O340        O  0.27892583  0.71642862  0.34753048    -0.80300
O341        O  0.22169600  0.72387703  0.17651807    -0.80200
O342        O  0.24897899  0.66790850  0.31745024    -0.80300
O343        O  0.25141742  0.67325839  0.20063675    -0.80200
O344        O  0.16771506  0.72185936  0.22846531    -0.80200
O345        O  0.33278716  0.72194181  0.29623129    -0.80300
C346        C  0.33465633  0.68667489  0.28449952     1.09500
C347        C  0.16556034  0.68573451  0.23718267     1.09300
C348        C  0.26924880  0.68020346  0.34543841     1.09500
C349        C  0.23001441  0.68762015  0.17472522     1.09400
O350        O  0.28462385  0.74917644  0.17960954    -0.80200
O351        O  0.21698799  0.74200808  0.34876571    -0.80300
O352        O  0.30810153  0.79614933  0.26731993    -0.80200
O353        O  0.19194245  0.79399378  0.26592750    -0.80200
O354        O  0.16677288  0.74183992  0.29438760    -0.80300
O355        O  0.33499558  0.74873936  0.23348689    -0.80200
O356        O  0.25431087  0.79710320  0.20891535    -0.80200
O357        O  0.24793262  0.79284696  0.32426501    -0.80300
Co358      Co  0.29095397  0.71076065  0.22276464     1.51500
Co359      Co  0.21027612  0.70615268  0.30093813     1.51700
Co360      Co  0.28799602  0.75660379  0.30485866     1.51600
Co361      Co  0.21280751  0.75893814  0.22380558     1.51500
O362        O  0.25040095  0.73293998  0.26299209    -1.42200
C363        C  0.27846815  0.78554342  0.18326791     1.09400
C364        C  0.22655523  0.77834286  0.35063107     1.09500
C365        C  0.33492844  0.78451811  0.24479618     1.09400
C366        C  0.16608490  0.77814650  0.28748801     1.06400
C367        C  0.07007658  0.82774963  0.29735707    -0.09200
C368        C  0.05811601  0.81338609  0.33395421     0.07000
C369        C  0.08413963  0.79280415  0.35619870    -0.03000
C370        C  0.12064396  0.78563233  0.34162797    -0.07500
C371        C  0.13274395  0.79861095  0.30464806     0.06100
C372        C  0.10704053  0.82012641  0.28237244    -0.02500
Br373      Br  0.11739527  0.83099822  0.22858618    -0.02200
H374        H  0.04920014  0.84065996  0.27854731     0.10000
H375        H  0.13876786  0.76675198  0.35826670     0.08000
Br376      Br  0.06825693  0.76715354  0.40342356    -0.02600
C377        C  0.83889084  0.05924203  0.31052802    -0.09200
C378        C  0.87208616  0.05261872  0.28831216     0.07000
C379        C  0.88401294  0.08146867  0.26123741    -0.03000
C380        C  0.86142933  0.11469709  0.25544167    -0.07500
C381        C  0.82662904  0.11997236  0.27596908     0.06100
C382        C  0.81619549  0.09186623  0.30469748    -0.02500
Br383      Br  0.77108925  0.09359129  0.33725985    -0.02200
H384        H  0.82915030  0.03765445  0.33149884     0.10000
H385        H  0.87057178  0.13580620  0.23375197     0.08000
Br386      Br  0.93105880  0.07779125  0.23190993    -0.02600
C387        C  0.87894725  0.20130991  0.40558656    -0.09200
C388        C  0.86124010  0.17449940  0.43134143     0.07000
C389        C  0.82712532  0.15544571  0.42024352    -0.03000
C390        C  0.80837893  0.16816447  0.38756325    -0.07500
C391        C  0.82445475  0.19657890  0.36255155     0.06100
C392        C  0.86118936  0.21212893  0.37109625    -0.02500
Br393      Br  0.88689605  0.25130057  0.34013738    -0.02200
H394        H  0.90559073  0.21581295  0.41358380     0.10000
H395        H  0.77956780  0.15720918  0.38334991     0.08000
Br396      Br  0.80142569  0.11541822  0.45033146    -0.02600
C397        C  0.18416993  0.82836739  0.38291251    -0.09200
C398        C  0.21414495  0.80164972  0.38537749     0.07000
C399        C  0.22449819  0.78934426  0.42250865    -0.03000
C400        C  0.19943075  0.79459804  0.45420935    -0.07500
C401        C  0.16440535  0.81375199  0.44975268     0.06100
C402        C  0.15877248  0.83393673  0.41475110    -0.02500
Br403      Br  0.11491527  0.86535231  0.40735757    -0.02200
H404        H  0.17777002  0.84120510  0.35517203     0.10000
H405        H  0.20587829  0.78069805  0.48142013     0.08000
Br406      Br  0.27291435  0.76580967  0.43068304    -0.02600
C407        C  0.19853901  0.05782525  0.68749492    -0.09200
C408        C  0.16811298  0.06383217  0.66206753     0.07000
C409        C  0.16835679  0.09929800  0.64107009    -0.03000
C410        C  0.19451308  0.13000010  0.65084762    -0.07500
C411        C  0.21939956  0.12632049  0.68244243     0.06100
C412        C  0.22291418  0.08873139  0.69866019    -0.02500
Br413      Br  0.25646812  0.07915809  0.74082027    -0.02200
H414        H  0.19986194  0.03046133  0.70314057     0.10000
H415        H  0.19240677  0.15798781  0.63659873     0.08000
Br416      Br  0.13241191  0.10806286  0.60070928    -0.02600
C417        C  0.08662482  0.15566347  0.66902528    -0.09200
C418        C  0.07088434  0.17647830  0.63866717     0.07000
C419        C  0.09256434  0.20787021  0.62248146    -0.03000
C420        C  0.12706916  0.22072095  0.63970436    -0.07500
C421        C  0.13958257  0.20360422  0.67415109     0.06100
C422        C  0.11917874  0.16969859  0.68797388    -0.02500
Br423      Br  0.12983581  0.14274230  0.73546201    -0.02200
H424        H  0.07005904  0.13193675  0.68216221     0.10000
H425        H  0.14179249  0.24649734  0.62845973     0.08000
Br426      Br  0.07261131  0.23774541  0.58074784    -0.02600
C427        C  0.02121296  0.88837031  0.37070732    -0.09200
C428        C  0.99417796  0.85966696  0.38330583     0.07000
C429        C  0.97479384  0.86801314  0.41920182    -0.03000
C430        C  0.98127744  0.90370226  0.43945212    -0.07500
C431        C  0.00990714  0.93075290  0.42798567     0.06100
C432        C  0.03063681  0.92193613  0.39337537    -0.02500
Br433      Br  0.07439546  0.95212570  0.37661910    -0.02200
H434        H  0.03643798  0.88439028  0.34349509     0.10000
H435        H  0.96514984  0.90941589  0.46603452     0.08000
Br436      Br  0.94291067  0.83129365  0.44656016    -0.02600
C437        C  0.92277049  0.99079511  0.42519349    -0.09200
C438        C  0.96190981  0.99975568  0.41839409     0.07000
C439        C  0.97365139  0.00987688  0.38032269    -0.03000
C440        C  0.94790414  0.00697681  0.34975970    -0.07500
C441        C  0.90904817  0.99692225  0.35613980     0.06100
C442        C  0.89624183  0.99087113  0.39465242    -0.02500
Br443      Br  0.84267262  0.98512802  0.40663696    -0.02200
H444        H  0.91273607  0.98407799  0.45433439     0.10000
H445        H  0.95846095  0.01275336  0.32057716     0.08000
Br446      Br  0.02350285  0.03074915  0.36784825    -0.02600
C447        C  0.92433459  0.04897582  0.50495876    -0.09200
C448        C  0.95735925  0.05749592  0.48224870     0.07000
C449        C  0.95914199  0.09315195  0.46236064    -0.03000
C450        C  0.93077094  0.12075195  0.46824561    -0.07500
C451        C  0.89748147  0.11316901  0.49129651     0.06100
C452        C  0.89395758  0.07571085  0.50830097    -0.02500
Br453      Br  0.84740750  0.05790795  0.53278047    -0.02200
H454        H  0.92177505  0.02092071  0.51931551     0.10000
H455        H  0.93521451  0.14855313  0.45392592     0.08000
Br456      Br  0.99818081  0.10628652  0.42504451    -0.02600
C457        C  0.99630241  0.05183413  0.57754641    -0.09200
C458        C  0.01519844  0.06134527  0.54238669     0.07000
C459        C  0.03010668  0.10005767  0.53903594    -0.03000
C460        C  0.02428547  0.12805856  0.56896022    -0.07500
C461        C  0.00553805  0.11870128  0.60435921     0.06100
C462        C  0.99274243  0.07919909  0.60857288    -0.02500
Br463      Br  0.97553866  0.05816669  0.65689216    -0.02200
H464        H  0.98517756  0.02228389  0.58141745     0.10000
H465        H  0.03536386  0.15751453  0.56469845     0.08000
Br466      Br  0.06110683  0.11663787  0.49585442    -0.02600
C467        C  0.05531836  0.97681142  0.57840136    -0.09200
C468        C  0.07032826  0.99701051  0.54631390     0.07000
C469        C  0.10701244  0.01476792  0.54939523    -0.03000
C470        C  0.12790877  0.01132557  0.58380214    -0.07500
C471        C  0.11179279  0.99379881  0.61718306     0.06100
C472        C  0.07443391  0.97644439  0.61390449    -0.02500
Br473      Br  0.04403886  0.95617951  0.65637149    -0.02200
H474        H  0.02702728  0.96336519  0.57651211     0.10000
H475        H  0.15596002  0.02521227  0.58558194     0.08000
Br476      Br  0.12878841  0.04744070  0.50967367    -0.02600
C477        C  0.12592656  0.89419225  0.49655670    -0.09200
C478        C  0.10568954  0.86083768  0.50972853     0.07000
C479        C  0.06520995  0.86355711  0.51420641    -0.03000
C480        C  0.04684957  0.89901644  0.50744724    -0.07500
C481        C  0.06664823  0.93142548  0.49190858     0.06100
C482        C  0.10670317  0.92835304  0.48580895    -0.02500
Br483      Br  0.13584580  0.96617631  0.45684060    -0.02200
H484        H  0.15647406  0.89222392  0.49099508     0.10000
H485        H  0.01624290  0.90069379  0.51264132     0.08000
Br486      Br  0.03166711  0.81950641  0.52398767    -0.02600
C487        C  0.66822209  0.29533415  0.43576016    -0.09200
C488        C  0.62834693  0.29078405  0.43326364     0.07000
C489        C  0.61338376  0.27270076  0.39927410    -0.03000
C490        C  0.63800267  0.26124470  0.36864517    -0.07500
C491        C  0.67798651  0.26409510  0.37211378     0.06100
C492        C  0.69291154  0.28012568  0.40714982    -0.02500
Br493      Br  0.74608587  0.27782173  0.42115188    -0.02200
H494        H  0.68053271  0.30742135  0.46203452     0.10000
H495        H  0.62573989  0.24853118  0.34254224     0.08000
Br496      Br  0.56027154  0.25970136  0.39327532    -0.02600
C497        C  0.34390172  0.42259993  0.69365616    -0.09200
C498        C  0.32251754  0.44066779  0.66514461     0.07000
C499        C  0.29502010  0.41788728  0.64472322    -0.03000
C500        C  0.28549915  0.37966406  0.65684796    -0.07500
C501        C  0.30337510  0.36335298  0.68905236     0.06100
C502        C  0.33486549  0.38439089  0.70558092    -0.02500
Br503      Br  0.36563069  0.36445326  0.74649374    -0.02200
H504        H  0.36561927  0.43937666  0.70910468     0.10000
H505        H  0.26230887  0.36386360  0.64271401     0.08000
Br506      Br  0.26864647  0.43839856  0.60104371    -0.02600
C507        C  0.38504232  0.67534046  0.33268019    -0.09200
C508        C  0.36905526  0.66510519  0.29650542     0.07000
C509        C  0.38966233  0.64010832  0.27134817    -0.03000
C510        C  0.42603906  0.62746527  0.28201199    -0.07500
C511        C  0.44345905  0.64058348  0.31677469     0.06100
C512        C  0.42170713  0.66369996  0.34291918    -0.02500
Br513      Br  0.44151709  0.68594598  0.39018014    -0.02200
H514        H  0.36967268  0.69471422  0.35241406     0.10000
H515        H  0.44220948  0.60986319  0.26134135     0.08000
Br516      Br  0.37260460  0.62731843  0.21988183    -0.02600
C517        C  0.65746491  0.39812883  0.34819681    -0.09200
C518        C  0.62703534  0.40903527  0.32472304     0.07000
C519        C  0.61410683  0.38172561  0.29626534    -0.03000
C520        C  0.63575673  0.34861090  0.28711972    -0.07500
C521        C  0.67129657  0.34286710  0.30450844     0.06100
C522        C  0.68090515  0.36677518  0.33717424    -0.02500
Br523      Br  0.72792456  0.36297252  0.36501052    -0.02200
H524        H  0.66766790  0.41841973  0.37037693     0.10000
H525        H  0.62701727  0.33021013  0.26283834     0.08000
Br526      Br  0.57346164  0.39313967  0.26144841    -0.02600
C527        C  0.33862342  0.63286523  0.40678061    -0.09200
C528        C  0.32944073  0.65280209  0.44162749     0.07000
C529        C  0.29106227  0.66446660  0.44750850    -0.03000
C530        C  0.26691643  0.66702724  0.41551902    -0.07500
C531        C  0.27947123  0.65491211  0.37847207     0.06100
C532        C  0.31218756  0.63149605  0.37619244    -0.02500
Br533      Br  0.31919534  0.59570014  0.33355035    -0.02200
H534        H  0.36664536  0.62013765  0.40266921     0.10000
H535        H  0.24020290  0.68257430  0.41874532     0.08000
Br536      Br  0.27247449  0.68331977  0.49701116    -0.02600
C537        C  0.44216041  0.26905498  0.67861242    -0.09200
C538        C  0.43402944  0.30672625  0.66423123     0.07000
C539        C  0.39708620  0.31254815  0.64991376    -0.03000
C540        C  0.36758113  0.28491944  0.65771979    -0.07500
C541        C  0.37443171  0.25057123  0.67896233     0.06100
C542        C  0.41280275  0.24108892  0.68572859    -0.02500
Br543      Br  0.42572320  0.19325705  0.71045775    -0.02200
H544        H  0.47038634  0.26339336  0.68969284     0.10000
H545        H  0.33843569  0.29227103  0.65068680     0.08000
Br546      Br  0.38506385  0.35973721  0.62336923    -0.02600
C547        C  0.44536890  0.59089334  0.53571086    -0.09200
C548        C  0.43827581  0.55837841  0.51173215     0.07000
C549        C  0.40588060  0.55884831  0.48763841    -0.03000
C550        C  0.38114807  0.59090423  0.48893842    -0.07500
C551        C  0.39034979  0.62559387  0.50969135     0.06100
C552        C  0.42403176  0.62515351  0.53279822    -0.02500
Br553      Br  0.44892415  0.67039681  0.55518462    -0.02200
H554        H  0.47033360  0.59101987  0.55407355     0.10000
H555        H  0.35588834  0.58943273  0.47129457     0.08000
Br556      Br  0.39559993  0.51896200  0.44932533    -0.02600
C557        C  0.44915848  0.51594496  0.61011771    -0.09200
C558        C  0.43910940  0.49953674  0.57365731     0.07000
C559        C  0.40131133  0.48522864  0.56954255    -0.03000
C560        C  0.37434434  0.48941769  0.59971997    -0.07500
C561        C  0.38388382  0.50533150  0.63646774     0.06100
C562        C  0.42240598  0.51787081  0.64158312    -0.02500
Br563      Br  0.44081156  0.53506923  0.69117255    -0.02200
H564        H  0.47816292  0.52673048  0.61437102     0.10000
H565        H  0.34533665  0.47960009  0.59414065     0.08000
Br566      Br  0.38447637  0.45742704  0.52430767    -0.02600
C567        C  0.48243195  0.54714375  0.41168402    -0.09200
C568        C  0.49612583  0.55752333  0.44853365     0.07000
C569        C  0.51170737  0.59571417  0.45368774    -0.03000
C570        C  0.51313926  0.62228313  0.42251840    -0.07500
C571        C  0.50070950  0.61140609  0.38507637     0.06100
C572        C  0.48546939  0.57269797  0.38006010    -0.02500
Br573      Br  0.47240421  0.54959049  0.33069966    -0.02200
H574        H  0.47071421  0.51794955  0.40694104     0.10000
H575        H  0.52537310  0.65128123  0.42723033     0.08000
Br576      Br  0.53418391  0.61228551  0.50170880    -0.02600
C577        C  0.53898574  0.47428893  0.40982427    -0.09200
C578        C  0.55154544  0.49359522  0.44358823     0.07000
C579        C  0.58914899  0.50980779  0.44310744    -0.03000
C580        C  0.61356185  0.50497989  0.41017167    -0.07500
C581        C  0.60082128  0.48567285  0.37614383     0.06100
C582        C  0.56216338  0.47195986  0.37612558    -0.02500
Br583      Br  0.53643468  0.45571849  0.32991221    -0.02200
H584        H  0.51004353  0.46234777  0.40909081     0.10000
H585        H  0.64247814  0.51689714  0.41102511     0.08000
Br586      Br  0.60805619  0.54024716  0.48590259    -0.02600
C587        C  0.53659947  0.40167428  0.47839350    -0.09200
C588        C  0.54937753  0.43257821  0.50187892     0.07000
C589        C  0.58500783  0.42927729  0.52021139    -0.03000
C590        C  0.60717290  0.39547356  0.51410940    -0.07500
C591        C  0.59259422  0.36249560  0.49366759     0.06100
C592        C  0.55579441  0.36609704  0.47668632    -0.02500
Br593      Br  0.52456199  0.32345518  0.45820821    -0.02200
H594        H  0.50938459  0.40410555  0.46394201     0.10000
H595        H  0.63460685  0.39366951  0.52818219     0.08000
Br596      Br  0.60280186  0.46811583  0.55662549    -0.02600
C597        C  0.51263477  0.44540014  0.60467278    -0.09200
C598        C  0.49562402  0.43591290  0.56918802     0.07000
C599        C  0.47839763  0.39818325  0.56526130    -0.03000
C600        C  0.47922361  0.37105254  0.59606154    -0.07500
C601        C  0.49526834  0.38088043  0.63229761     0.06100
C602        C  0.51185102  0.41942798  0.63613078    -0.02500
Br603      Br  0.53160167  0.44204166  0.68329696    -0.02200
H604        H  0.52568204  0.47421310  0.60842292     0.10000
H605        H  0.46613191  0.34232546  0.59206313     0.08000
Br606      Br  0.45114061  0.38257459  0.51964966    -0.02600
C607        C  0.86087286  0.28964512  0.07825159    -0.09200
C608        C  0.84191683  0.32134885  0.06136100     0.07000
C609        C  0.81328198  0.34014259  0.08343406    -0.03000
C610        C  0.80105167  0.32474504  0.11909873    -0.07500
C611        C  0.81691263  0.29039946  0.13428186     0.06100
C612        C  0.84881137  0.27419586  0.11445368    -0.02500
Br613      Br  0.87369367  0.22818750  0.13235938    -0.02200
H614        H  0.88213599  0.27397687  0.06117965     0.10000
H615        H  0.77714576  0.33859191  0.13393964     0.08000
Br616      Br  0.78419039  0.38167413  0.06176694    -0.02600
C617        C  0.09446796  0.36330687  0.80733910    -0.09200
C618        C  0.06060902  0.34567456  0.82075910     0.07000
C619        C  0.06159581  0.30481793  0.82903386    -0.03000
C620        C  0.09663741  0.28426354  0.82542986    -0.07500
C621        C  0.12908452  0.30189885  0.80748499     0.06100
C622        C  0.12556064  0.34133004  0.79544289    -0.02500
Br623      Br  0.15500584  0.36543561  0.75405606    -0.02200
H624        H  0.09398807  0.39366870  0.79931335     0.10000
H625        H  0.09684888  0.25316599  0.83144234     0.08000
Br626      Br  0.01609508  0.27392674  0.83928609    -0.02600
C627        C  0.84564306  0.35888451  0.19295757    -0.09200
C628        C  0.81766759  0.36238595  0.22266083     0.07000
C629        C  0.80556783  0.40033176  0.23308720    -0.03000
C630        C  0.81570467  0.43237424  0.20979442    -0.07500
C631        C  0.83564824  0.42685172  0.17433941     0.06100
C632        C  0.85407462  0.39077086  0.16818431    -0.02500
Br633      Br  0.88870395  0.38360448  0.12498403    -0.02200
H634        H  0.85789815  0.33060444  0.18648449     0.10000
H635        H  0.80246023  0.46033523  0.21597679     0.08000
Br636      Br  0.77139573  0.40929958  0.27629483    -0.02600
C637        C  0.10773250  0.68076699  0.19562987    -0.09200
C638        C  0.13031133  0.66364970  0.22446824     0.07000
C639        C  0.11657227  0.62862155  0.24161656    -0.03000
C640        C  0.08068668  0.61280239  0.23095470    -0.07500
C641        C  0.05720232  0.63134345  0.20380953     0.06100
C642        C  0.07171043  0.66543900  0.18554356    -0.02500
Br643      Br  0.04334767  0.69459851  0.14848018    -0.02200
H644        H  0.11760593  0.70731568  0.18136016     0.10000
H645        H  0.07002752  0.58686116  0.24576120     0.08000
Br646      Br  0.14302443  0.60298262  0.28246904    -0.02600
C647        C  0.21110942  0.43183200  0.82462186    -0.09200
C648        C  0.17644317  0.42741256  0.84551982     0.07000
C649        C  0.16885528  0.39047913  0.86278920    -0.03000
C650        C  0.19265507  0.35809969  0.85399831    -0.07500
C651        C  0.22413174  0.36194016  0.82807052     0.06100
C652        C  0.23498693  0.40014897  0.81672915    -0.02500
Br653      Br  0.27986666  0.41031592  0.78573993    -0.02200
H654        H  0.21742759  0.45898314  0.80986261     0.10000
H655        H  0.18398897  0.32922596  0.86393409     0.08000
Br656      Br  0.12425906  0.38152587  0.89482235    -0.02600
C657        C  0.18116274  0.64385251  0.14126536    -0.09200
C658        C  0.21623752  0.66493556  0.13978150     0.07000
C659        C  0.23111837  0.67439178  0.10261950    -0.03000
C660        C  0.20897751  0.66847355  0.06926409    -0.07500
C661        C  0.17059171  0.65534850  0.07209114     0.06100
C662        C  0.15810710  0.63959524  0.10788391    -0.02500
Br663      Br  0.10887563  0.61442386  0.11231182    -0.02200
H664        H  0.17037447  0.63323828  0.16876172     0.10000
H665        H  0.21971969  0.68003502  0.04187683     0.08000
Br666      Br  0.27951547  0.70056057  0.09608433    -0.02600
C667        C  0.08890768  0.48151696  0.94792161    -0.09200
C668        C  0.05535037  0.50243958  0.94048256     0.07000
C669        C  0.05473879  0.52537995  0.90675727    -0.03000
C670        C  0.08492606  0.52372655  0.87950440    -0.07500
C671        C  0.11816469  0.50142376  0.88577441     0.06100
C672        C  0.12070344  0.48255890  0.92199032    -0.02500
Br673      Br  0.16824220  0.46189235  0.93903689    -0.02200
H674        H  0.09078008  0.46503866  0.97450105     0.10000
H675        H  0.08167690  0.53974518  0.85284852     0.08000
Br676      Br  0.01391295  0.56047629  0.89653346    -0.02600
C677        C  0.11758953  0.58939621  0.01680568    -0.09200
C678        C  0.10859510  0.62663855  0.00221866     0.07000
C679        C  0.07094845  0.63109451  0.98752164    -0.03000
C680        C  0.04519476  0.59919570  0.98570971    -0.07500
C681        C  0.05366647  0.56279454  0.00129867     0.06100
C682        C  0.09024082  0.55821482  0.01760915    -0.02500
Br683      Br  0.10280842  0.51132100  0.04440195    -0.02200
H684        H  0.14533679  0.58518448  0.02963910     0.10000
H685        H  0.01725345  0.60340120  0.97340251     0.08000
Br686      Br  0.04883750  0.68018951  0.97479006    -0.02600
C687        C  0.01251955  0.54427243  0.09621792    -0.09200
C688        C  0.99463552  0.55856615  0.06327912     0.07000
C689        C  0.97872707  0.59641745  0.06553270    -0.03000
C690        C  0.98043582  0.61848573  0.10043766    -0.07500
C691        C  0.99674856  0.60339951  0.13426462     0.06100
C692        C  0.01282080  0.56523357  0.13150939    -0.02500
Br693      Br  0.03189904  0.53636924  0.17459250    -0.02200
H694        H  0.02464403  0.51522490  0.09502091     0.10000
H695        H  0.96769294  0.64719932  0.10159988     0.08000
Br696      Br  0.95311256  0.61917439  0.02269979    -0.02600
C697        C  0.93459975  0.48862003  0.09303578    -0.09200
C698        C  0.92911288  0.50367001  0.05559095     0.07000
C699        C  0.89298800  0.51936242  0.04733313    -0.03000
C700        C  0.86244772  0.51549037  0.07408169    -0.07500
C701        C  0.86718608  0.49857394  0.11100095     0.06100
C702        C  0.90464854  0.48769643  0.12106613    -0.02500
Br703      Br  0.91739004  0.47533186  0.17343071    -0.02200
H704        H  0.96250151  0.47799634  0.10075768     0.10000
H705        H  0.83456466  0.52542609  0.06547151     0.08000
Br706      Br  0.88351340  0.54761353  0.00059923    -0.02600
C707        C  0.89525769  0.44803486  0.97935908    -0.09200
C708        C  0.93135516  0.44132028  0.99501286     0.07000
C709        C  0.93757950  0.40389604  0.01079134    -0.03000
C710        C  0.90864998  0.37423452  0.00946668    -0.07500
C711        C  0.87212137  0.38125823  0.99398269     0.06100
C712        C  0.86556498  0.41968217  0.98051097    -0.02500
Br713      Br  0.81587563  0.43860457  0.96942266    -0.02200
H714        H  0.88950772  0.47607959  0.96691646     0.10000
H715        H  0.91471709  0.34556923  0.02085278     0.08000
Br716      Br  0.98496983  0.39244521  0.03530889    -0.02600
C717        C  0.01026325  0.41192661  0.93278257    -0.09200
C718        C  0.98964252  0.44675873  0.93231924     0.07000
C719        C  0.96630967  0.45343223  0.90005621    -0.03000
C720        C  0.96602340  0.42708438  0.86831150    -0.07500
C721        C  0.98754126  0.39203984  0.86765148     0.06100
C722        C  0.00841845  0.38427731  0.90202162    -0.02500
Br723      Br  0.03134362  0.33550616  0.91311005    -0.02200
H724        H  0.02721102  0.40560537  0.95801992     0.10000
H725        H  0.94903314  0.43491326  0.84363228     0.08000
Br726      Br  0.93407546  0.49827133  0.89741791    -0.02600
C727        C  0.34150224  0.82622283  0.10064527    -0.09200
C728        C  0.31872065  0.85728520  0.08900682     0.07000
C729        C  0.29026326  0.87079679  0.11562391    -0.03000
C730        C  0.28123301  0.84955549  0.14924303    -0.07500
C731        C  0.29798212  0.81325969  0.15574423     0.06100
C732        C  0.32997720  0.80256710  0.13192245    -0.02500
Br733      Br  0.35609515  0.75353919  0.13516738    -0.02200
H734        H  0.36340096  0.81533103  0.08078076     0.10000
H735        H  0.25739580  0.85894991  0.16742416     0.08000
Br736      Br  0.25580221  0.91190000  0.10368116    -0.02600
C737        C  0.39731159  0.79310995  0.20980377    -0.09200
C738        C  0.36733496  0.81072956  0.23112077     0.07000
C739        C  0.36973217  0.85175682  0.23750473    -0.03000
C740        C  0.40197635  0.87324361  0.22368287    -0.07500
C741        C  0.43144413  0.85522020  0.20170983     0.06100
C742        C  0.42752618  0.81479502  0.19331527    -0.02500
Br743      Br  0.46248973  0.78581452  0.16087299    -0.02200
H744        H  0.39734138  0.76165747  0.20531664     0.10000
H745        H  0.40436173  0.90423227  0.23066582     0.08000
Br746      Br  0.33101372  0.88024026  0.26550357    -0.02600
C747        C  0.39915091  0.17771196  0.85807560    -0.09200
C748        C  0.43472908  0.18119564  0.83860953     0.07000
C749        C  0.44238468  0.21621950  0.81754928    -0.03000
C750        C  0.41280454  0.24262169  0.81053096    -0.07500
C751        C  0.37584710  0.23608061  0.82579506     0.06100
C752        C  0.37052620  0.20576400  0.85297875    -0.02500
Br753      Br  0.32426672  0.20218006  0.88333682    -0.02200
H754        H  0.39273893  0.15199547  0.87536959     0.10000
H755        H  0.41780065  0.26608006  0.78995501     0.08000
Br756      Br  0.49099126  0.22708899  0.79276602    -0.02600
C757        C  0.32196073  0.07898111  0.84185793    -0.09200
C758        C  0.29861240  0.06711344  0.87318228     0.07000
C759        C  0.26867066  0.09211268  0.88558278    -0.03000
C760        C  0.25977078  0.12516546  0.86361396    -0.07500
C761        C  0.28109244  0.13497026  0.83000270     0.06100
C762        C  0.31384836  0.11229491  0.82051878    -0.02500
Br763      Br  0.34902136  0.12330689  0.77825898    -0.02200
H764        H  0.34567576  0.06100793  0.83226093     0.10000
H765        H  0.23563098  0.14285920  0.87255431     0.08000
Br766      Br  0.23998617  0.08412710  0.93302682    -0.02600
C767        C  0.69576815  0.17819607  0.10589476    -0.09200
C768        C  0.68042879  0.20770500  0.13022974     0.07000
C769        C  0.64684255  0.22639980  0.11836082    -0.03000
C770        C  0.63065286  0.21645521  0.08225687    -0.07500
C771        C  0.64760811  0.18860493  0.05692679     0.06100
C772        C  0.68028146  0.16897487  0.06968463    -0.02500
Br773      Br  0.70800965  0.13189714  0.03834455    -0.02200
H774        H  0.72121386  0.16287709  0.11444506     0.10000
H775        H  0.60579975  0.23226480  0.07292395     0.08000
Br776      Br  0.62410968  0.26847792  0.14764332    -0.02600
C777        C  0.68852821  0.04898906  0.18647109    -0.09200
C778        C  0.67090470  0.05611966  0.15106414     0.07000
C779        C  0.65245178  0.09207154  0.14635630    -0.03000
C780        C  0.65804636  0.12262876  0.17381928    -0.07500
C781        C  0.68231163  0.11751471  0.20560897     0.06100
C782        C  0.69417073  0.07916267  0.21348882    -0.02500
Br783      Br  0.72077803  0.06640177  0.25927490    -0.02200
H784        H  0.70108122  0.02066023  0.19157030     0.10000
H785        H  0.64566846  0.15091047  0.16889538     0.08000
Br786      Br  0.61986257  0.09992246  0.10318404    -0.02600
C787        C  0.43556853  0.99227572  0.90911444    -0.09200
C788        C  0.43354047  0.00644213  0.94758410     0.07000
C789        C  0.40067294  0.02662401  0.95997717    -0.03000
C790        C  0.36850229  0.02690466  0.93638021    -0.07500
C791        C  0.36926726  0.01024944  0.89858882     0.06100
C792        C  0.40439689  0.99581676  0.88412219    -0.02500
Br793      Br  0.41230905  0.98454285  0.82996872    -0.02200
H794        H  0.46157875  0.97893375  0.89831091     0.10000
H795        H  0.34257672  0.03975589  0.94810073     0.08000
Br796      Br  0.39878022  0.05581846  0.00802490    -0.02600
C797        C  0.39821386  0.95309759  0.02451687    -0.09200
C798        C  0.43208091  0.94244094  0.00521184     0.07000
C799        C  0.43437194  0.90393396  0.98995540    -0.03000
C800        C  0.40357069  0.87699947  0.99517564    -0.07500
C801        C  0.36905684  0.88818117  0.01377985     0.06100
C802        C  0.36644755  0.92756191  0.02675439    -0.02500
Br803      Br  0.31910638  0.95128996  0.04081075    -0.02200
H804        H  0.39584327  0.98202329  0.03705865     0.10000
H805        H  0.40640389  0.84746322  0.98396320     0.08000
Br806      Br  0.47853859  0.88738849  0.96075243    -0.02600
C807        C  0.59399853  0.05302924  0.98097661    -0.09200
C808        C  0.55868655  0.05756700  0.00062336     0.07000
C809        C  0.55232011  0.09278136  0.02113864    -0.03000
C810        C  0.57887512  0.12396483  0.01844321    -0.07500
C811        C  0.61402980  0.12025040  0.99778454     0.06100
C812        C  0.62212099  0.08319479  0.98089214    -0.02500
Br813      Br  0.67168874  0.07085963  0.95986383    -0.02200
H814        H  0.59994337  0.02588954  0.96576621     0.10000
H815        H  0.57166684  0.15142009  0.03258780     0.08000
Br816      Br  0.50774970  0.09935267  0.05376891    -0.02600
C817        C  0.48459333  0.09638660  0.94585621    -0.09200
C818        C  0.50009794  0.05885413  0.94039154     0.07000
C819        C  0.51709996  0.04985095  0.90413249    -0.03000
C820        C  0.51548286  0.07642983  0.87340061    -0.07500
C821        C  0.49857314  0.11378883  0.87788965     0.06100
C822        C  0.48466082  0.12399627  0.91549049    -0.02500
Br823      Br  0.46820792  0.17589257  0.92796885    -0.02200
H824        H  0.47253532  0.10438265  0.97395037     0.10000
H825        H  0.52716035  0.06716461  0.84553361     0.08000
Br826      Br  0.54283454  0.00122234  0.89501565    -0.02600
C827        C  0.47271360  0.92888637  0.13079868    -0.09200
C828        C  0.48932982  0.89124482  0.12931806     0.07000
C829        C  0.50506986  0.87859037  0.09323979    -0.03000
C830        C  0.50692202  0.90414050  0.06132110    -0.07500
C831        C  0.49142145  0.94184884  0.06368778     0.06100
C832        C  0.47314444  0.95354915  0.09853394    -0.02500
Br833      Br  0.44964462  0.00386355  0.10407739    -0.02200
H834        H  0.46020384  0.94001512  0.15761482     0.10000
H835        H  0.52058834  0.89449482  0.03451779     0.08000
Br836      Br  0.52233050  0.82622160  0.08486511    -0.02600
C837        C  0.55977184  0.00349542  0.09170461    -0.09200
C838        C  0.56025262  0.99021026  0.05290359     0.07000
C839        C  0.59283199  0.97112816  0.03821014    -0.03000
C840        C  0.62591296  0.97016232  0.06036578    -0.07500
C841        C  0.62663245  0.98592023  0.09843200     0.06100
C842        C  0.59226147  0.00011667  0.11490332    -0.02500
Br843      Br  0.58776052  0.01304442  0.16908825    -0.02200
H844        H  0.53420780  0.01655897  0.10394665     0.10000
H845        H  0.65156466  0.95804750  0.04723107     0.08000
Br846      Br  0.59332155  0.94573552  0.98807955    -0.02600
C847        C  0.81635690  0.93557739  0.28704207    -0.09200
C848        C  0.84544867  0.92940271  0.31393279     0.07000
C849        C  0.84117072  0.89754382  0.33952271    -0.03000
C850        C  0.81181624  0.86912797  0.33333424    -0.07500
C851        C  0.78770023  0.87166037  0.30098549     0.06100
C852        C  0.78834296  0.90698169  0.27989702    -0.02500
Br853      Br  0.75417079  0.91679789  0.23811551    -0.02200
H854        H  0.81778575  0.96109110  0.26851533     0.10000
H855        H  0.81048136  0.84331048  0.35133630     0.08000
Br856      Br  0.87582209  0.89073132  0.38144309    -0.02600
C857        C  0.72351906  0.86262995  0.12979915    -0.09200
C858        C  0.70631630  0.85661128  0.16662050     0.07000
C859        C  0.67870198  0.88418488  0.18005006    -0.03000
C860        C  0.67225468  0.91808837  0.15898229    -0.07500
C861        C  0.69215753  0.92578549  0.12425983     0.06100
C862        C  0.71602927  0.89649755  0.10834778    -0.02500
Br863      Br  0.73789383  0.90096899  0.05704598    -0.02200
H864        H  0.74345275  0.84143506  0.11799414     0.10000
H865        H  0.65323219  0.93987501  0.17134782     0.08000
Br866      Br  0.64948418  0.88003021  0.22792343    -0.02600
C867        C  0.89399437  0.71646206  0.20102897    -0.09200
C868        C  0.86115502  0.70488904  0.18051489     0.07000
C869        C  0.86517466  0.67513454  0.15194162    -0.03000
C870        C  0.89812566  0.65145240  0.15133079    -0.07500
C871        C  0.92868577  0.65954605  0.17664619     0.06100
C872        C  0.92770068  0.69494560  0.19859904    -0.02500
Br873      Br  0.96964185  0.71300696  0.23016419    -0.02200
H874        H  0.89229822  0.74034159  0.22203355     0.10000
H875        H  0.89892094  0.62571987  0.13260894     0.08000
Br876      Br  0.82730705  0.66681483  0.11304951    -0.02600
C877        C  0.85754376  0.76848592  0.35345148    -0.09200
C878        C  0.85163459  0.78407495  0.31652428     0.07000
C879        C  0.87799819  0.81306750  0.30238436    -0.03000
C880        C  0.91042452  0.82324292  0.32383531    -0.07500
C881        C  0.91900992  0.80344224  0.35796690     0.06100
C882        C  0.89120026  0.77701050  0.37364448    -0.02500
Br883      Br  0.90167331  0.74410221  0.41709887    -0.02200
H884        H  0.83795189  0.74636226  0.36492205     0.10000
H885        H  0.93168608  0.84291052  0.31097005     0.08000
Br886      Br  0.87417099  0.83871428  0.25300013    -0.02600
C887        C  0.65302435  0.61584713  0.31035314    -0.09200
C888        C  0.69189452  0.62469440  0.31812055     0.07000
C889        C  0.71315314  0.59670835  0.33803477    -0.03000
C890        C  0.69595369  0.56036528  0.34804530    -0.07500
C891        C  0.65786454  0.55088161  0.33771352     0.06100
C892        C  0.63603549  0.57984832  0.32048815    -0.02500
Br893      Br  0.58507507  0.56750062  0.30334149    -0.02200
H894        H  0.63631754  0.63619289  0.29389237     0.10000
H895        H  0.71392880  0.53752151  0.35906977     0.08000
Br896      Br  0.76745352  0.60301616  0.34405250    -0.02600
C897        C  0.75224199  0.60827904  0.14355231    -0.09200
C898        C  0.77124057  0.62266327  0.17664666     0.07000
C899        C  0.80398616  0.60181906  0.18930706    -0.03000
C900        C  0.81504384  0.56711112  0.17066899    -0.07500
C901        C  0.79405030  0.55102605  0.14002849     0.06100
C902        C  0.76338636  0.57295896  0.12524244    -0.02500
Br903      Br  0.73573402  0.55623595  0.08000783    -0.02200
H904        H  0.72778002  0.62369642  0.13270685     0.10000
H905        H  0.83872457  0.55099196  0.18230679     0.08000
Br906      Br  0.83521607  0.61641559  0.23307595    -0.02600
C907        C  0.58632502  0.83540638  0.15368793    -0.09200
C908        C  0.55582224  0.83725505  0.18101116     0.07000
C909        C  0.55338837  0.80777324  0.20982329    -0.03000
C910        C  0.58295468  0.78111347  0.21354599    -0.07500
C911        C  0.61570895  0.78254140  0.18957891     0.06100
C912        C  0.61511630  0.80691607  0.15677366    -0.02500
Br913      Br  0.65062629  0.79978794  0.11452150    -0.02200
H914        H  0.58819595  0.85647208  0.13037567     0.10000
H915        H  0.58181853  0.76085454  0.23758890     0.08000
Br916      Br  0.51276509  0.80365033  0.24811343    -0.02600
C917        C  0.63736423  0.68823596  0.36143210    -0.09200
C918        C  0.63337432  0.72099797  0.33757663     0.07000
C919        C  0.59741293  0.73885606  0.33718436    -0.03000
C920        C  0.56487482  0.71817819  0.35080292    -0.07500
C921        C  0.56808995  0.67885366  0.36253959     0.06100
C922        C  0.60459563  0.66698946  0.37407733    -0.02500
Br923      Br  0.61043218  0.62068714  0.40419871    -0.02200
H924        H  0.66553027  0.67724794  0.36726828     0.10000
H925        H  0.53686163  0.72968816  0.34468067     0.08000
Br926      Br  0.59177731  0.79022512  0.31644389    -0.02600
C927        C  0.90059944  0.30204064  0.75388213    -0.09200
C928        C  0.86457150  0.31909141  0.75875866     0.07000
C929        C  0.86228669  0.35598159  0.77749797    -0.03000
C930        C  0.89514388  0.37272401  0.79483285    -0.07500
C931        C  0.93094192  0.35438974  0.79173826     0.06100
C932        C  0.93357232  0.31987105  0.76857802    -0.02500
Br933      Br  0.98117845  0.29799478  0.75069970    -0.02200
H934        H  0.90318940  0.27461000  0.73786686     0.10000
H935        H  0.89311664  0.40112737  0.80904774     0.08000
Br936      Br  0.81594539  0.38533353  0.77868311    -0.02600
C937        C  0.90889355  0.16818673  0.63589528    -0.09200
C938        C  0.93156669  0.14555353  0.66000850     0.07000
C939        C  0.91506910  0.13301767  0.69599868    -0.03000
C940        C  0.87845462  0.14543628  0.70791984    -0.07500
C941        C  0.85950526  0.17405682  0.68695178     0.06100
C942        C  0.87567919  0.18579520  0.65076436    -0.02500
Br943      Br  0.85821447  0.23085572  0.62355753    -0.02200
H944        H  0.92144181  0.17971039  0.60923493     0.10000
H945        H  0.86749677  0.13712106  0.73635367     0.08000
Br946      Br  0.94525513  0.10967404  0.73557302    -0.02600
C947        C  0.70716673  0.17960150  0.93004533    -0.09200
C948        C  0.67141405  0.16050974  0.92572681     0.07000
C949        C  0.66333038  0.14235190  0.88971087    -0.03000
C950        C  0.68823150  0.14825618  0.85751715    -0.07500
C951        C  0.72023654  0.17366822  0.86041918     0.06100
C952        C  0.73103857  0.18687468  0.89776082    -0.02500
Br953      Br  0.77560424  0.21964685  0.90526825    -0.02200
H954        H  0.71428499  0.19324031  0.95768771     0.10000
H955        H  0.68044506  0.13624102  0.82946780     0.08000
Br956      Br  0.61719810  0.11201780  0.88287754    -0.02600
C957        C  0.84566294  0.33237706  0.89893791    -0.09200
C958        C  0.81875750  0.35273284  0.92164768     0.07000
C959        C  0.78358522  0.36246806  0.90416433    -0.03000
C960        C  0.77430785  0.34745723  0.86736295    -0.07500
C961        C  0.79770981  0.31975189  0.84890980     0.06100
C962        C  0.83445493  0.31314590  0.86459596    -0.02500
Br963      Br  0.86851617  0.27351957  0.84537957    -0.02200
H964        H  0.87239606  0.32405822  0.91198962     0.10000
H965        H  0.74605897  0.35282758  0.85608789     0.08000
Br966      Br  0.74205281  0.38546887  0.93321172    -0.02600
C967        C  0.61689092  0.13992018  0.76966019    -0.09200
C968        C  0.62945807  0.17490324  0.78766787     0.07000
C969        C  0.60623497  0.19093277  0.81813225    -0.03000
C970        C  0.57041132  0.17416637  0.82708915    -0.07500
C971        C  0.55653370  0.14123750  0.80684655     0.06100
C972        C  0.58098078  0.12295791  0.77912097    -0.02500
Br973      Br  0.56724913  0.07451598  0.75362989    -0.02200
H974        H  0.63437642  0.12639796  0.74711663     0.10000
H975        H  0.55253846  0.18813907  0.84905996     0.08000
Br976      Br  0.62041924  0.23593735  0.84930997    -0.02600
C977        C  0.60380308  0.29480076  0.68630047    -0.09200
C978        C  0.62807531  0.31255757  0.71405947     0.07000
C979        C  0.61714457  0.34861123  0.73093918    -0.03000
C980        C  0.58131641  0.36413857  0.72210701    -0.07500
C981        C  0.55638115  0.34505394  0.69579297     0.06100
C982        C  0.56857828  0.31040566  0.67715565    -0.02500
Br983      Br  0.53816916  0.28093497  0.64058780    -0.02200
H984        H  0.61187208  0.26774785  0.67178356     0.10000
H985        H  0.57197004  0.39018580  0.73757267     0.08000
Br986      Br  0.64798228  0.37659244  0.76808617    -0.02600
C987        C  0.66491021  0.33331896  0.62664601    -0.09200
C988        C  0.69831522  0.31119081  0.62172709     0.07000
C989        C  0.70929442  0.30085088  0.58358486    -0.03000
C990        C  0.68319186  0.30353792  0.55318687    -0.07500
C991        C  0.64650516  0.31903008  0.55968176     0.06100
C992        C  0.63892766  0.33720659  0.59588627    -0.02500
Br993      Br  0.59320750  0.36631741  0.60443985    -0.02200
H994        H  0.65814829  0.34602230  0.65465826     0.10000
H995        H  0.69071433  0.29093292  0.52517790     0.08000
Br996      Br  0.76015502  0.28374444  0.57225428    -0.02600
C997        C  0.76788619  0.18257012  0.58106695    -0.09200
C998        C  0.77278342  0.16666582  0.61798330     0.07000
C999        C  0.80035768  0.13724833  0.62132747    -0.03000
C1000       C  0.82909439  0.13291850  0.59205239    -0.07500
C1001       C  0.82845512  0.15510663  0.55760909     0.06100
C1002       C  0.79498756  0.17717485  0.55108000    -0.02500
Br1003     Br  0.78599645  0.20507769  0.50396392    -0.02200
H1004       H  0.74455790  0.20246917  0.57672276     0.10000
H1005       H  0.85304255  0.11405509  0.59740738     0.08000
Br1006     Br  0.79912343  0.10270510  0.66487160    -0.02600
C1007       C  0.34148039  0.78606020  0.89361333    -0.09200
C1008       C  0.31349699  0.80496419  0.87201250     0.07000
C1009       C  0.29865688  0.84078655  0.88705812    -0.03000
C1010       C  0.31201119  0.85674843  0.92188816    -0.07500
C1011       C  0.33453055  0.83463951  0.94627963     0.06100
C1012       C  0.35072624  0.79975447  0.93123865    -0.02500
Br1013     Br  0.37956992  0.76626673  0.96384186    -0.02200
H1014       H  0.35246171  0.75818064  0.88347884     0.10000
H1015       H  0.29827239  0.88273076  0.93358752     0.08000
Br1016     Br  0.25437727  0.86608271  0.86686579    -0.02600
C1017       C  0.14910987  0.73331594  0.88248140    -0.09200
C1018       C  0.18062661  0.71178716  0.86915937     0.07000
C1019       C  0.19144377  0.67881059  0.89129723    -0.03000
C1020       C  0.17264395  0.67005046  0.92673205    -0.07500
C1021       C  0.14400397  0.69432313  0.94212248     0.06100
C1022       C  0.13147759  0.72562469  0.91866855    -0.02500
Br1023     Br  0.09278987  0.76186891  0.93519849    -0.02200
H1024       H  0.14013677  0.75855714  0.86628900     0.10000
H1025       H  0.18310228  0.64627558  0.94410005     0.08000
Br1026     Br  0.23362433  0.64584799  0.87711383    -0.02600
C1027       C  0.14353541  0.87726481  0.72955442    -0.09200
C1028       C  0.17650230  0.86654264  0.70835131     0.07000
C1029       C  0.18608816  0.88834306  0.67452743    -0.03000
C1030       C  0.16630043  0.92266930  0.66592499    -0.07500
C1031       C  0.13604744  0.93587289  0.68975376     0.06100
C1032       C  0.12302271  0.91097425  0.72028367    -0.02500
Br1033     Br  0.07706211  0.92019520  0.75029345    -0.02200
H1034       H  0.13441165  0.86024611  0.75454897     0.10000
H1035       H  0.17606675  0.94017267  0.64150053     0.08000
Br1036     Br  0.22583061  0.87322432  0.63844875    -0.02600
C1037       C  0.29930407  0.91606746  0.77968362    -0.09200
C1038       C  0.31739835  0.88027810  0.78471940     0.07000
C1039       C  0.34675836  0.87834708  0.81229420    -0.03000
C1040       C  0.35010700  0.90819196  0.84089964    -0.07500
C1041       C  0.32685060  0.94152938  0.83955622     0.06100
C1042       C  0.30444591  0.94683425  0.80613180    -0.02500
Br1043     Br  0.27540546  0.99300037  0.79751566    -0.02200
H1044       H  0.27786309  0.91867954  0.75739168     0.10000
H1045       H  0.36927862  0.90444615  0.86501127     0.08000
Br1046     Br  0.38148907  0.83539260  0.81215402    -0.02600
C1047       C  0.35588983  0.73641231  0.62582680    -0.09200
C1048       C  0.32567065  0.71212793  0.63917916     0.07000
C1049       C  0.31522063  0.67891409  0.61610991    -0.03000
C1050       C  0.33320535  0.67232360  0.58003819    -0.07500
C1051       C  0.36103340  0.69846341  0.56529817     0.06100
C1052       C  0.37323433  0.73020999  0.58925289    -0.02500
Br1053     Br  0.41288662  0.76682501  0.57372776    -0.02200
H1054       H  0.36474794  0.76175517  0.64291373     0.10000
H1055       H  0.32363648  0.64764057  0.56240104     0.08000
Br1056     Br  0.27620571  0.64110343  0.63070713    -0.02600
C1057       C  0.14119440  0.76952653  0.64279728    -0.09200
C1058       C  0.18130419  0.76709497  0.63893543     0.07000
C1059       C  0.19840817  0.77686140  0.60242971    -0.03000
C1060       C  0.17638962  0.79141280  0.57262131    -0.07500
C1061       C  0.13650329  0.79304166  0.57580626     0.06100
C1062       C  0.11875241  0.78124868  0.61116816    -0.02500
Br1063     Br  0.06413632  0.78004749  0.61718876    -0.02200
H1064       H  0.12730592  0.76220200  0.67020754     0.10000
H1065       H  0.19042439  0.79832267  0.54522351     0.08000
Br1066     Br  0.25127750  0.76751984  0.58860291    -0.02600
C1067       C  0.35754840  0.64245671  0.71963067    -0.09200
C1068       C  0.33997144  0.63724970  0.75648305     0.07000
C1069       C  0.33873683  0.59903210  0.77167546    -0.03000
C1070       C  0.34620620  0.56673527  0.74686081    -0.07500
C1071       C  0.35603099  0.57214246  0.70717670     0.06100
C1072       C  0.36600029  0.61025183  0.69534304    -0.02500
Br1073     Br  0.38677404  0.61933998  0.64436767    -0.02200
H1074       H  0.36079366  0.67170197  0.70793548     0.10000
H1075       H  0.33944419  0.53748682  0.75717753     0.08000
Br1076     Br  0.32277225  0.58930737  0.82431426    -0.02600
C1077       C  0.13863536  0.58710439  0.80085289    -0.09200
C1078       C  0.16106727  0.55795207  0.81765005     0.07000
C1079       C  0.20122727  0.56253919  0.81584759    -0.03000
C1080       C  0.21799756  0.59227232  0.79318982    -0.07500
C1081       C  0.19562244  0.61988299  0.77441288     0.06100
C1082       C  0.15570893  0.61871560  0.78075397    -0.02500
Br1083     Br  0.12391170  0.66032986  0.76394536    -0.02200
H1084       H  0.10766818  0.58445098  0.80205913     0.10000
H1085       H  0.24885982  0.59461691  0.79100050     0.08000
Br1086     Br  0.23449813  0.52951224  0.84410819    -0.02600
loop_ 
_geom_bond_atom_site_label_1 
_geom_bond_atom_site_label_2 
_geom_bond_distance 
_geom_bond_site_symmetry_2 
_ccdc_geom_bond_type 
O1            C9   1.282       .  A
O1          Co21   1.924       .  S
O2           C10   1.272       .  A
O2          Co22   1.986       .  S
O3           C11   1.268       .  A
O3          Co23   1.990       .  S
O4           C12   1.263       .  A
O4          Co24   1.980       .  S
O5           C11   1.279       .  A
O5          Co22   2.007       .  S
O6           C12   1.281       .  A
O6          Co21   2.019       .  S
O7           C10   1.283       .  A
O7          Co24   2.027       .  S
O8            C9   1.297       .  A
O8          Co23   2.129       .  S
C9         C1068   1.495       .  S
C10        C1038   1.479       .  S
C11        C1048   1.493       .  S
C12        C1008   1.493       .  S
O13          C26   1.277       .  A
O13         Co21   2.004       .  S
O14          C27   1.271       .  A
O14         Co22   1.986       .  S
O15          C28   1.276       .  A
O15         Co23   1.917       .  S
O16          C29   1.279       .  A
O16         Co24   2.005       .  S
O17          C29   1.275       .  A
O17         Co22   2.020       .  S
O18          C28   1.287       .  A
O18         Co21   2.109       .  S
O19          C26   1.290       .  A
O19         Co24   2.025       .  S
O20          C27   1.285       .  A
O20         Co23   2.018       .  S
Co21         O25   1.986       .  S
Co22         O25   2.022       .  S
Co23         O25   1.961       .  S
Co24         O25   2.003       .  S
C26        C1018   1.502       .  S
C27        C1058   1.495       .  S
C28        C1081   1.478       .  S
C29        C1028   1.502       .  S
O30          C38   1.274       .  A
O30         Co50   2.010       .  S
O31          C39   1.274       .  A
O31         Co51   2.005       .  S
O32          C40   1.265       .  A
O32         Co52   1.998       .  S
O33          C41   1.267       .  A
O33         Co53   2.001       .  S
O34          C40   1.273       .  A
O34         Co51   1.996       .  S
O35          C41   1.278       .  A
O35         Co50   2.001       .  S
O36          C39   1.272       .  A
O36         Co53   2.017       .  S
O37          C38   1.276       .  A
O37         Co52   2.030       .  S
C38         C998   1.500       .  S
C39         C951   1.487       .  S
C40         C941   1.493       .  S
C41         C968   1.496       .  S
O42          C55   1.270       .  A
O42         Co50   1.993       .  S
O43          C56   1.275       .  A
O43         Co51   2.017       .  S
O44          C57   1.270       .  A
O44         Co52   2.000       .  S
O45          C58   1.274       .  A
O45         Co53   1.990       .  S
O46          C58   1.270       .  A
O46         Co51   2.016       .  S
O47          C57   1.277       .  A
O47         Co50   2.041       .  S
O48          C55   1.273       .  A
O48         Co53   1.991       .  S
O49          C56   1.273       .  A
O49         Co52   1.992       .  S
Co50         O54   2.107       .  S
Co51         O54   2.110       .  S
Co52         O54   2.093       .  S
Co53         O54   2.097       .  S
C55         C978   1.486       .  S
C56         C928   1.481       .  S
C57         C988   1.495       .  S
C58         C961   1.490       .  S
O59          C67   1.271       .  A
O59         Co79   2.011       .  S
O60          C68   1.273       .  A
O60         Co80   2.008       .  S
O61          C69   1.272       .  A
O61         Co81   2.011       .  S
O62          C70   1.267       .  A
O62         Co82   1.994       .  S
O63          C69   1.279       .  A
O63         Co80   1.998       .  S
O64          C70   1.289       .  A
O64         Co79   2.028       .  S
O65          C68   1.272       .  A
O65         Co82   2.014       .  S
O66          C67   1.269       .  A
O66         Co81   2.008       .  S
C67         C911   1.492       .  S
C68         C868   1.495       .  S
C69         C858   1.497       .  S
C70         C898   1.502       .  S
O71          C84   1.260       .  A
O71         Co79   1.982       .  S
O72          C85   1.267       .  A
O72         Co80   2.014       .  S
O73          C86   1.269       .  A
O73         Co81   1.973       .  S
O74          C87   1.279       .  A
O74         Co82   1.984       .  S
O75          C87   1.273       .  A
O75         Co80   2.015       .  S
O76          C86   1.290       .  A
O76         Co79   2.071       .  S
O77          C84   1.281       .  A
O77         Co82   2.025       .  S
O78          C85   1.270       .  A
O78         Co81   2.005       .  S
Co79         O83   2.103       .  S
Co80         O83   2.111       .  S
Co81         O83   2.097       .  S
Co82         O83   2.097       .  S
C84         C888   1.493       .  S
C85         C851   1.491       .  S
C86         C918   1.488       .  S
C87         C878   1.487       .  S
C88         C838   1.484       .  S
C88          C89   1.420       .  A
C88          C93   1.424   1_564  A
C89         C831   1.500       .  S
C89          C90   1.417       .  A
C90         C798   1.508       .  S
C90          C91   1.431   1_564  A
C91         C788   1.488       .  S
C91          C92   1.426       .  A
C92         C818   1.507       .  S
C92          C93   1.420       .  A
C93         C808   1.504   1_556  S
N94          C98   1.360   1_565  A
N94          C95   1.361       .  A
N94         C841   1.446       .  S
C95         C861   1.487       .  S
C95          C96   1.379       .  A
C96          C97   1.371   1_565  A
C96          H99   1.082       .  S
C97          C98   1.387       .  A
C97         H100   1.083       .  S
C98         C778   1.485       .  S
N101        C105   1.368       .  A
N101        C102   1.369   1_556  A
N101        C811   1.462       .  S
C102        C771   1.494       .  S
C102        C103   1.377   1_554  A
C103        C104   1.363       .  A
C103        H106   1.082   1_556  S
C104        C105   1.387       .  A
C104        H107   1.081       .  S
C105        C948   1.493       .  S
N108        C112   1.361   1_545  A
N108        C109   1.366       .  A
N108        C791   1.452       .  S
C109        C758   1.493       .  S
C109        C110   1.379       .  A
C110        C111   1.363   1_545  A
C110        H113   1.079       .  S
C111        C112   1.385       .  A
C111        H114   1.069       .  S
C112       C1041   1.493       .  S
N115        C119   1.369       .  A
N115        C116   1.372       .  A
N115        C821   1.469       .  S
C116        C748   1.503       .  S
C116        C117   1.384       .  A
C117        C118   1.363       .  A
C117        H120   1.079       .  S
C118        C119   1.377       .  A
C118        H121   1.081       .  S
C119        C971   1.491       .  S
N122        C126   1.367       .  A
N122        C123   1.366       .  A
N122        C828   1.463       .  S
C123        C741   1.497       .  S
C123        C124   1.381       .  A
C124        C125   1.371       .  A
C124        H127   1.082       .  S
C125        C126   1.387       .  A
C125        H128   1.083       .  S
C126        C908   1.502       .  S
N129        C133   1.367   1_554  A
N129        C130   1.375       .  A
N129        C801   1.460       .  S
C130        C728   1.484       .  S
C130        C131   1.384       .  A
C131        C132   1.359   1_554  A
C131        H134   1.083       .  S
C132        C133   1.379       .  A
C132        H135   1.083       .  S
C133       C1011   1.478       .  S
C136        C698   1.509       .  S
C136        C137   1.435   1_554  A
C136        C141   1.435       .  A
C137        C708   1.521       .  S
C137        C138   1.432       .  A
C138        C718   1.509       .  S
C138        C139   1.436   1_655  A
C139        C668   1.507       .  S
C139        C140   1.428   1_556  A
C140        C681   1.513       .  S
C140        C141   1.430   1_455  A
C141        C688   1.507       .  S
N142        C146   1.373       .  A
N142        C143   1.376   1_554  A
N142        C678   1.466       .  S
C143       C1021   1.504       .  S
C143        C144   1.380   1_556  A
C144        C145   1.362       .  A
C144        H147   1.082   1_554  S
C145        C146   1.385       .  A
C145        H148   1.083       .  S
C146        C661   1.502       .  S
N149        C153   1.376       .  A
N149        C150   1.372       .  A
N149        C671   1.467       .  S
C150       C1078   1.484       .  S
C150        C151   1.366       .  A
C151        C152   1.355       .  A
C151        H154   1.083       .  S
C152        C153   1.391       .  A
C152        H155   1.050       .  S
C153        C648   1.510       .  S
N156        C160   1.367   1_655  A
N156        C157   1.367       .  A
N156        C691   1.463       .  S
C157        C871   1.500       .  S
C157        C158   1.385       .  A
C158        C159   1.367       .  A
C158        H161   1.083       .  S
C159        C160   1.380   1_655  A
C159        H162   1.082   1_655  S
C160        C641   1.499       .  S
N163        C167   1.372       .  A
N163        C164   1.370       .  A
N163        C701   1.463       .  S
C164        C631   1.496       .  S
C164        C165   1.387       .  A
C165        C166   1.361       .  A
C165        H168   1.084       .  S
C166        C167   1.377       .  A
C166        H169   1.081       .  S
C167        C901   1.495       .  S
N170        C174   1.370   1_655  A
N170        C171   1.382       .  A
N170        C721   1.481       .  S
C171        C931   1.484       .  S
C171        C172   1.376       .  A
C172        C173   1.349   1_655  A
C172        H175   1.083       .  S
C173        C174   1.390       .  A
C173        H176   1.083       .  S
C174        C618   1.505       .  S
N177        C181   1.376       .  A
N177        C178   1.377   1_556  A
N177        C711   1.470       .  S
C178        C608   1.478       .  S
C178        C179   1.380       .  A
C179        C180   1.352   1_554  A
C179        H182   1.083       .  S
C180        C181   1.379       .  A
C180        H183   1.082       .  S
C181        C958   1.480       .  S
C184        C588   1.496       .  S
C184        C185   1.435       .  A
C184        C189   1.429       .  A
C185        C598   1.516       .  S
C185        C186   1.432       .  A
C186        C558   1.518       .  S
C186        C187   1.434       .  A
C187        C548   1.500       .  S
C187        C188   1.434       .  A
C188        C568   1.512       .  S
C188        C189   1.429       .  A
C189        C578   1.519       .  S
N190        C194   1.372       .  A
N190        C191   1.364       .  A
N190        C601   1.471       .  S
C191        C981   1.482       .  S
C191        C192   1.374       .  A
C192        C193   1.359       .  A
C192        H195   1.083       .  S
C193        C194   1.387       .  A
C193        H196   1.081       .  S
C194        C538   1.503       .  S
N197        C201   1.366       .  A
N197        C198   1.366       .  A
N197        C551   1.464       .  S
C198        C528   1.493       .  S
C198        C199   1.383       .  A
C199        C200   1.367       .  A
C199        H202   1.082       .  S
C200        C201   1.382       .  A
C200        H203   1.081       .  S
C201       C1051   1.494       .  S
N204        C208   1.374       .  A
N204        C205   1.372       .  A
N204        C581   1.467       .  S
C205        C891   1.477       .  S
C205        C206   1.377       .  A
C206        C207   1.356       .  A
C206        H209   1.083       .  S
C207        C208   1.384       .  A
C207        H210   1.083       .  S
C208        C518   1.482       .  S
N211        C215   1.368       .  A
N211        C212   1.368       .  A
N211        C571   1.463       .  S
C212        C511   1.494       .  S
C212        C213   1.380       .  A
C213        C214   1.360       .  A
C213        H216   1.082       .  S
C214        C215   1.387       .  A
C214        H217   1.083       .  S
C215        C921   1.492       .  S
N218        C222   1.372       .  A
N218        C219   1.375       .  A
N218        C561   1.468       .  S
C219       C1071   1.496       .  S
C219        C220   1.386       .  A
C220        C221   1.359       .  A
C220        H223   1.083       .  S
C221        C222   1.375       .  A
C221        H224   1.082       .  S
C222        C498   1.488       .  S
N225        C229   1.370       .  A
N225        C226   1.364       .  A
N225        C591   1.462       .  S
C226        C991   1.496       .  S
C226        C227   1.382       .  A
C227        C228   1.370       .  A
C227        H230   1.083       .  S
C228        C229   1.383       .  A
C228        H231   1.083       .  S
C229        C488   1.494       .  S
C232        C468   1.501       .  S
C232        C233   1.439       .  A
C232        C237   1.433   1_565  A
C233        C481   1.510       .  S
C233        C234   1.438       .  A
C234        C431   1.528       .  S
C234        C235   1.433   1_455  A
C235        C438   1.504       .  S
C235        C236   1.431   1_565  A
C236        C448   1.499       .  S
C236        C237   1.428   1_655  A
C237        C458   1.528       .  S
N238        C242   1.380   1_455  A
N238        C239   1.376       .  A
N238        C461   1.473       .  S
C239        C418   1.476       .  S
C239        C240   1.379       .  A
C240        C241   1.351   1_455  A
C240        H243   1.083       .  S
C241        C242   1.381       .  A
C241        H244   1.084       .  S
C242        C938   1.481       .  S
N245        C249   1.368   1_545  A
N245        C246   1.368       .  A
N245        C471   1.458   1_545  S
C246        C408   1.506       .  S
C246        C247   1.387       .  A
C247        C248   1.365       .  A
C247        H250   1.076       .  S
C248        C249   1.379   1_545  A
C248        H251   1.080   1_545  S
C249       C1031   1.505       .  S
N252        C256   1.362       .  A
N252        C253   1.370       .  A
N252        C478   1.455       .  S
C253       C1061   1.489       .  S
C253        C254   1.384       .  A
C254        C255   1.368       .  A
C254        H257   1.083       .  S
C255        C256   1.381       .  A
C255        H258   1.083       .  S
C256        C401   1.496       .  S
N259        C263   1.370       .  A
N259        C260   1.362       .  A
N259        C451   1.466       .  S
C260        C388   1.476       .  S
C260        C261   1.368       .  A
C261        C262   1.357       .  A
C261        H264   1.082       .  S
C262        C263   1.394       .  A
C262        H265   1.060       .  S
C263       C1001   1.515       .  S
N266        C270   1.361       .  A
N266        C267   1.364   1_565  A
N266        C441   1.451       .  S
C267        C378   1.492       .  S
C267        C268   1.380   1_545  A
C268        C269   1.371       .  A
C268        H271   1.081       .  S
C269        C270   1.391       .  A
C269        H272   1.082       .  S
C270        C848   1.496       .  S
N273        C277   1.378       .  A
N273        C274   1.373   1_655  A
N273        C428   1.481       .  S
C274        C368   1.468       .  S
C274        C275   1.376       .  A
C275        C276   1.348   1_455  A
C275        H278   1.083       .  S
C276        C277   1.385       .  A
C276        H279   1.084       .  S
C277        C881   1.474       .  S
O280        C288   1.281       .  A
O280       Co300   2.018       .  S
O281        C289   1.282       .  A
O281       Co301   2.022       .  S
O282        C290   1.269       .  A
O282       Co302   1.984       .  S
O283        C291   1.292       .  A
O283       Co303   2.117       .  S
O284        C290   1.293       .  A
O284       Co301   2.035       .  S
O285        C291   1.283       .  A
O285       Co300   1.932       .  S
O286        C289   1.266       .  A
O286       Co303   1.981       .  S
O287        C288   1.277       .  A
O287       Co302   2.017       .  S
C288        C411   1.498       .  S
C289        C501   1.496       .  S
C290        C421   1.498       .  S
C291        C541   1.496       .  S
O292        C305   1.294       .  A
O292       Co300   2.134       .  S
O293        C306   1.260       .  A
O293       Co301   1.972       .  S
O294        C307   1.287       .  A
O294       Co302   2.015       .  S
O295        C308   1.281       .  A
O295       Co303   2.007       .  S
O296        C308   1.284       .  A
O296       Co301   2.040       .  S
O297        C307   1.275       .  A
O297       Co300   1.989       .  S
O298        C305   1.272       .  A
O298       Co303   1.921       .  S
O299        C306   1.289       .  A
O299       Co302   2.045       .  S
Co300       O304   1.979       .  S
Co301       O304   2.010       .  S
Co302       O304   2.017       .  S
Co303       O304   1.969       .  S
C305        C751   1.489       .  S
C306        C621   1.494       .  S
C307        C761   1.495       .  S
C308        C651   1.499       .  S
O309        C317   1.270       .  A
O309       Co329   2.020       .  S
O310        C318   1.275       .  A
O310       Co330   2.035       .  S
O311        C319   1.278       .  A
O311       Co331   2.007       .  S
O312        C320   1.266       .  A
O312       Co332   1.974       .  S
O313        C319   1.272       .  A
O313       Co330   2.007       .  S
O314        C320   1.272       .  A
O314       Co329   2.007       .  S
O315        C318   1.268       .  A
O315       Co332   1.995       .  S
O316        C317   1.275       .  A
O316       Co331   1.997       .  S
C317        C381   1.500       .  S
C318        C628   1.492       .  S
C319        C611   1.501       .  S
C320        C391   1.486       .  S
O321        C334   1.274       .  A
O321       Co329   1.990       .  S
O322        C335   1.272       .  A
O322       Co330   1.994       .  S
O323        C336   1.275       .  A
O323       Co331   2.031       .  S
O324        C337   1.272       .  A
O324       Co332   2.025       .  S
O325        C337   1.271       .  A
O325       Co330   1.982       .  S
O326        C336   1.271       .  A
O326       Co329   1.998       .  S
O327        C334   1.271       .  A
O327       Co332   2.022       .  S
O328        C335   1.270       .  A
O328       Co331   2.002       .  S
Co329       O333   2.105       .  S
Co330       O333   2.098       .  S
Co331       O333   2.106       .  S
Co332       O333   2.106       .  S
C334        C491   1.496       .  S
C335        C768   1.492       .  S
C336        C781   1.489       .  S
C337        C521   1.495       .  S
O338        C346   1.275       .  A
O338       Co358   1.994       .  S
O339        C347   1.276       .  A
O339       Co359   1.997       .  S
O340        C348   1.277       .  A
O340       Co360   2.036       .  S
O341        C349   1.275       .  A
O341       Co361   2.031       .  S
O342        C348   1.266       .  A
O342       Co359   1.986       .  S
O343        C349   1.278       .  A
O343       Co358   2.017       .  S
O344        C347   1.272       .  A
O344       Co361   2.008       .  S
O345        C346   1.267       .  A
O345       Co360   1.992       .  S
C346        C508   1.484       .  S
C347        C638   1.500       .  S
C348        C531   1.485       .  S
C349        C658   1.502       .  S
O350        C363   1.267       .  A
O350       Co358   2.007       .  S
O351        C364   1.279       .  A
O351       Co359   2.052       .  S
O352        C365   1.271       .  A
O352       Co360   1.989       .  S
O353        C366   1.276       .  A
O353       Co361   2.004       .  S
O354        C366   1.264       .  A
O354       Co359   1.978       .  S
O355        C365   1.277       .  A
O355       Co358   2.028       .  S
O356        C363   1.274       .  A
O356       Co361   1.996       .  S
O357        C364   1.265       .  A
O357       Co360   1.984       .  S
Co358       O362   2.107       .  S
Co359       O362   2.103       .  S
Co360       O362   2.107       .  S
Co361       O362   2.107       .  S
C363        C731   1.494       .  S
C364        C398   1.490       .  S
C365        C738   1.503       .  S
C366        C371   1.478       .  S
C367        C368   1.410       .  A
C367        C372   1.409       .  A
C367        H374   1.083       .  S
C368        C369   1.399       .  A
C369        C370   1.386       .  A
C369       Br376   1.923       .  S
C370        C371   1.407       .  A
C370        H375   1.084       .  S
C371        C372   1.409       .  A
C372       Br373   1.918       .  S
C377        C378   1.398       .  A
C377        C382   1.394       .  A
C377        H384   1.083       .  S
C378        C379   1.415       .  A
C379        C380   1.409       .  A
C379       Br386   1.918       .  S
C380        C381   1.408       .  A
C380        H385   1.083       .  S
C381        C382   1.423       .  A
C382       Br383   1.919       .  S
C387        C388   1.409       .  A
C387        C392   1.402       .  A
C387        H394   1.083       .  S
C388        C389   1.402       .  A
C389        C390   1.386       .  A
C389       Br396   1.923       .  S
C390        C391   1.407       .  A
C390        H395   1.078       .  S
C391        C392   1.413       .  A
C392       Br393   1.919       .  S
C397        C398   1.403       .  A
C397        C402   1.411       .  A
C397        H404   1.082       .  S
C398        C399   1.403       .  A
C399        C400   1.399       .  A
C399       Br406   1.908       .  S
C400        C401   1.406       .  A
C400        H405   1.082       .  S
C401        C402   1.411       .  A
C402       Br403   1.904       .  S
C407        C408   1.404       .  A
C407        C412   1.397       .  A
C407        H414   1.084       .  S
C408        C409   1.415       .  A
C409        C410   1.418       .  A
C409       Br416   1.914       .  S
C410        C411   1.409       .  A
C410        H415   1.082       .  S
C411        C412   1.411       .  A
C412       Br413   1.911       .  S
C417        C418   1.393       .  A
C417        C422   1.393       .  A
C417        H424   1.085       .  S
C418        C419   1.415       .  A
C419        C420   1.411       .  A
C419       Br426   1.915       .  S
C420        C421   1.405       .  A
C420        H425   1.083       .  S
C421        C422   1.430       .  A
C422       Br423   1.927       .  S
C427        C428   1.415   1_455  A
C427        C432   1.415       .  A
C427        H434   1.077       .  S
C428        C429   1.426       .  A
C429        C430   1.412       .  A
C429       Br436   1.907       .  S
C430        C431   1.403   1_655  A
C430        H435   1.084       .  S
C431        C432   1.415       .  A
C432       Br433   1.912       .  S
C437        C438   1.411       .  A
C437        C442   1.410       .  A
C437        H444   1.082       .  S
C438        C439   1.410   1_565  A
C439        C440   1.394       .  A
C439       Br446   1.913   1_655  S
C440        C441   1.407   1_545  A
C440        H445   1.083       .  S
C441        C442   1.407       .  A
C442       Br443   1.915       .  S
C447        C448   1.410       .  A
C447        C452   1.412       .  A
C447        H454   1.083       .  S
C448        C449   1.402       .  A
C449        C450   1.388       .  A
C449       Br456   1.908       .  S
C450        C451   1.418       .  A
C450        H455   1.081       .  S
C451        C452   1.413       .  A
C452       Br453   1.911       .  S
C457        C458   1.407   1_655  A
C457        C462   1.415       .  A
C457        H464   1.083       .  S
C458        C459   1.416       .  A
C459        C460   1.411       .  A
C459       Br466   1.909       .  S
C460        C461   1.410       .  A
C460        H465   1.081       .  S
C461        C462   1.420   1_455  A
C462       Br463   1.902       .  S
C467        C468   1.398       .  A
C467        C472   1.400       .  A
C467        H474   1.084       .  S
C468        C469   1.412   1_565  A
C469        C470   1.406       .  A
C469       Br476   1.913       .  S
C470        C471   1.405   1_545  A
C470        H475   1.082       .  S
C471        C472   1.428       .  A
C472       Br473   1.920       .  S
C477        C478   1.404       .  A
C477        C482   1.409       .  A
C477        H484   1.083       .  S
C478        C479   1.423       .  A
C479        C480   1.401       .  A
C479       Br486   1.918       .  S
C480        C481   1.400       .  A
C480        H485   1.082       .  S
C481        C482   1.415       .  A
C482       Br483   1.909       .  S
C487        C488   1.401       .  A
C487        C492   1.399       .  A
C487        H494   1.081       .  S
C488        C489   1.418       .  A
C489        C490   1.405       .  A
C489       Br496   1.912       .  S
C490        C491   1.404       .  A
C490        H495   1.083       .  S
C491        C492   1.420       .  A
C492       Br493   1.927       .  S
C497        C498   1.396       .  A
C497        C502   1.400       .  A
C497        H504   1.084       .  S
C498        C499   1.414       .  A
C499        C500   1.406       .  A
C499       Br506   1.918       .  S
C500        C501   1.404       .  A
C500        H505   1.083       .  S
C501        C502   1.424       .  A
C502       Br503   1.919       .  S
C507        C508   1.409       .  A
C507        C512   1.397       .  A
C507        H514   1.084       .  S
C508        C509   1.406       .  A
C509        C510   1.402       .  A
C509       Br516   1.919       .  S
C510        C511   1.414       .  A
C510        H515   1.083       .  S
C511        C512   1.410       .  A
C512       Br513   1.919       .  S
C517        C518   1.401       .  A
C517        C522   1.402       .  A
C517        H524   1.084       .  S
C518        C519   1.417       .  A
C519        C520   1.399       .  A
C519       Br526   1.917       .  S
C520        C521   1.402       .  A
C520        H525   1.083       .  S
C521        C522   1.421       .  A
C522       Br523   1.919       .  S
C527        C528   1.406       .  A
C527        C532   1.409       .  A
C527        H534   1.083       .  S
C528        C529   1.414       .  A
C529        C530   1.400       .  A
C529       Br536   1.920       .  S
C530        C531   1.401       .  A
C530        H535   1.084       .  S
C531        C532   1.405       .  A
C532       Br533   1.913       .  S
C537        C538   1.416       .  A
C537        C542   1.408       .  A
C537        H544   1.082       .  S
C538        C539   1.405       .  A
C539        C540   1.409       .  A
C539       Br546   1.914       .  S
C540        C541   1.413       .  A
C540        H545   1.083       .  S
C541        C542   1.406       .  A
C542       Br543   1.911       .  S
C547        C548   1.395       .  A
C547        C552   1.401       .  A
C547        H554   1.083       .  S
C548        C549   1.412       .  A
C549        C550   1.404       .  A
C549       Br556   1.916       .  S
C550        C551   1.410       .  A
C550        H555   1.078       .  S
C551        C552   1.429       .  A
C552       Br553   1.917       .  S
C557        C558   1.414       .  A
C557        C562   1.420       .  A
C557        H564   1.082       .  S
C558        C559   1.407       .  A
C559        C560   1.398       .  A
C559       Br566   1.908       .  S
C560        C561   1.412       .  A
C560        H565   1.080       .  S
C561        C562   1.416       .  A
C562       Br563   1.914       .  S
C567        C568   1.401       .  A
C567        C572   1.403       .  A
C567        H574   1.082       .  S
C568        C569   1.413       .  A
C569        C570   1.411       .  A
C569       Br576   1.914       .  S
C570        C571   1.408       .  A
C570        H575   1.082       .  S
C571        C572   1.425       .  A
C572       Br573   1.921       .  S
C577        C578   1.401       .  A
C577        C582   1.405       .  A
C577        H584   1.083       .  S
C578        C579   1.415       .  A
C579        C580   1.416       .  A
C579       Br586   1.911       .  S
C580        C581   1.410       .  A
C580        H585   1.082       .  S
C581        C582   1.420       .  A
C582       Br583   1.909       .  S
C587        C588   1.392       .  A
C587        C592   1.396       .  A
C587        H594   1.083       .  S
C588        C589   1.409       .  A
C589        C590   1.411       .  A
C589       Br596   1.915       .  S
C590        C591   1.411       .  A
C590        H595   1.082       .  S
C591        C592   1.426       .  A
C592       Br593   1.911       .  S
C597        C598   1.397       .  A
C597        C602   1.405       .  A
C597        H604   1.083       .  S
C598        C599   1.417       .  A
C599        C600   1.415       .  A
C599       Br606   1.912       .  S
C600        C601   1.408       .  A
C600        H605   1.082       .  S
C601        C602   1.433       .  A
C602       Br603   1.920       .  S
C607        C608   1.412       .  A
C607        C612   1.412       .  A
C607        H614   1.083       .  S
C608        C609   1.404       .  A
C609        C610   1.397       .  A
C609       Br616   1.920       .  S
C610        C611   1.412       .  A
C610        H615   1.083       .  S
C611        C612   1.413       .  A
C612       Br613   1.918       .  S
C617        C618   1.391       .  A
C617        C622   1.383       .  A
C617        H624   1.075       .  S
C618        C619   1.426       .  A
C619        C620   1.422       .  A
C619       Br626   1.921       .  S
C620        C621   1.410       .  A
C620        H625   1.083       .  S
C621        C622   1.419       .  A
C622       Br623   1.926       .  S
C627        C628   1.407       .  A
C627        C632   1.413       .  A
C627        H634   1.081       .  S
C628        C629   1.409       .  A
C629        C630   1.399       .  A
C629       Br636   1.916       .  S
C630        C631   1.407       .  A
C630        H635   1.084       .  S
C631        C632   1.410       .  A
C632       Br633   1.916       .  S
C637        C638   1.413       .  A
C637        C642   1.400       .  A
C637        H644   1.083       .  S
C638        C639   1.411       .  A
C639        C640   1.407       .  A
C639       Br646   1.919       .  S
C640        C641   1.413       .  A
C640        H645   1.083       .  S
C641        C642   1.410       .  A
C642       Br643   1.921       .  S
C647        C648   1.404       .  A
C647        C652   1.397       .  A
C647        H654   1.079       .  S
C648        C649   1.418       .  A
C649        C650   1.420       .  A
C649       Br656   1.915       .  S
C650        C651   1.409       .  A
C650        H655   1.083       .  S
C651        C652   1.408       .  A
C652       Br653   1.910       .  S
C657        C658   1.409       .  A
C657        C662   1.416       .  A
C657        H664   1.076       .  S
C658        C659   1.410       .  A
C659        C660   1.403       .  A
C659       Br666   1.908       .  S
C660        C661   1.407       .  A
C660        H665   1.084       .  S
C661        C662   1.408       .  A
C662       Br663   1.912       .  S
C667        C668   1.409       .  A
C667        C672   1.413       .  A
C667        H674   1.081       .  S
C668        C669   1.406       .  A
C669        C670   1.400       .  A
C669       Br676   1.915       .  S
C670        C671   1.418       .  A
C670        H675   1.080       .  S
C671        C672   1.412       .  A
C672       Br673   1.915       .  S
C677        C678   1.412       .  A
C677        C682   1.417       .  A
C677        H684   1.082       .  S
C678        C679   1.425   1_554  A
C679        C680   1.401       .  A
C679       Br686   1.913       .  S
C680        C681   1.395   1_556  A
C680        H685   1.081       .  S
C681        C682   1.413       .  A
C682       Br683   1.915       .  S
C687        C688   1.398   1_455  A
C687        C692   1.402       .  A
C687        H694   1.084       .  S
C688        C689   1.414       .  A
C689        C690   1.411       .  A
C689       Br696   1.912       .  S
C690        C691   1.409       .  A
C690        H695   1.082       .  S
C691        C692   1.427   1_655  A
C692       Br693   1.921       .  S
C697        C698   1.408       .  A
C697        C702   1.411       .  A
C697        H704   1.082       .  S
C698        C699   1.411       .  A
C699        C700   1.402       .  A
C699       Br706   1.918       .  S
C700        C701   1.413       .  A
C700        H705   1.082       .  S
C701        C702   1.414       .  A
C702       Br703   1.914       .  S
C707        C708   1.400       .  A
C707        C712   1.406       .  A
C707        H714   1.075       .  S
C708        C709   1.414   1_556  A
C709        C710   1.418       .  A
C709       Br716   1.915       .  S
C710        C711   1.414   1_554  A
C710        H715   1.082       .  S
C711        C712   1.418       .  A
C712       Br713   1.905       .  S
C717        C718   1.399   1_455  A
C717        C722   1.411       .  A
C717        H724   1.083       .  S
C718        C719   1.409       .  A
C719        C720   1.406       .  A
C719       Br726   1.917       .  S
C720        C721   1.422       .  A
C720        H725   1.081       .  S
C721        C722   1.427   1_655  A
C722       Br723   1.902       .  S
C727        C728   1.400       .  A
C727        C732   1.401       .  A
C727        H734   1.085       .  S
C728        C729   1.419       .  A
C729        C730   1.400       .  A
C729       Br736   1.914       .  S
C730        C731   1.399       .  A
C730        H735   1.083       .  S
C731        C732   1.424       .  A
C732       Br733   1.923       .  S
C737        C738   1.407       .  A
C737        C742   1.395       .  A
C737        H744   1.082       .  S
C738        C739   1.415       .  A
C739        C740   1.411       .  A
C739       Br746   1.918       .  S
C740        C741   1.412       .  A
C740        H745   1.083       .  S
C741        C742   1.410       .  A
C742       Br743   1.919       .  S
C747        C748   1.405       .  A
C747        C752   1.409       .  A
C747        H754   1.083       .  S
C748        C749   1.423       .  A
C749        C750   1.406       .  A
C749       Br756   1.919       .  S
C750        C751   1.400       .  A
C750        H755   1.084       .  S
C751        C752   1.409       .  A
C752       Br753   1.912       .  S
C757        C758   1.400       .  A
C757        C762   1.394       .  A
C757        H764   1.083       .  S
C758        C759   1.417       .  A
C759        C760   1.405       .  A
C759       Br766   1.920       .  S
C760        C761   1.405       .  A
C760        H765   1.083       .  S
C761        C762   1.422       .  A
C762       Br763   1.924       .  S
C767        C768   1.409       .  A
C767        C772   1.395       .  A
C767        H774   1.084       .  S
C768        C769   1.411       .  A
C769        C770   1.407       .  A
C769       Br776   1.919       .  S
C770        C771   1.413       .  A
C770        H775   1.083       .  S
C771        C772   1.410       .  A
C772       Br773   1.917       .  S
C777        C778   1.398       .  A
C777        C782   1.392       .  A
C777        H784   1.084       .  S
C778        C779   1.406       .  A
C779        C780   1.412       .  A
C779       Br786   1.907       .  S
C780        C781   1.407       .  A
C780        H785   1.079       .  S
C781        C782   1.409       .  A
C782       Br783   1.898       .  S
C787        C788   1.404   1_565  A
C787        C792   1.404       .  A
C787        H794   1.081       .  S
C788        C789   1.405       .  A
C789        C790   1.395       .  A
C789       Br796   1.920   1_556  S
C790        C791   1.412       .  A
C790        H795   1.082       .  S
C791        C792   1.410   1_545  A
C792       Br793   1.914       .  S
C797        C798   1.398       .  A
C797        C802   1.400       .  A
C797        H804   1.076       .  S
C798        C799   1.412   1_554  A
C799        C800   1.413       .  A
C799       Br806   1.916       .  S
C800        C801   1.411   1_556  A
C800        H805   1.080       .  S
C801        C802   1.414       .  A
C802       Br803   1.905       .  S
C807        C808   1.406   1_556  A
C807        C812   1.410       .  A
C807        H814   1.080       .  S
C808        C809   1.405       .  A
C809        C810   1.402       .  A
C809       Br816   1.918       .  S
C810        C811   1.415   1_554  A
C810        H815   1.082       .  S
C811        C812   1.416       .  A
C812       Br813   1.916       .  S
C817        C818   1.407       .  A
C817        C822   1.413       .  A
C817        H824   1.082       .  S
C818        C819   1.406       .  A
C819        C820   1.402       .  A
C819       Br826   1.919       .  S
C820        C821   1.419       .  A
C820        H825   1.081       .  S
C821        C822   1.416       .  A
C822       Br823   1.912       .  S
C827        C828   1.417       .  A
C827        C832   1.399       .  A
C827        H834   1.082       .  S
C828        C829   1.415       .  A
C829        C830   1.409       .  A
C829       Br836   1.912       .  S
C830        C831   1.404       .  A
C830        H835   1.082       .  S
C831        C832   1.406       .  A
C832       Br833   1.920   1_565  S
C837        C838   1.404   1_545  A
C837        C842   1.403       .  A
C837        H844   1.081       .  S
C838        C839   1.404       .  A
C839        C840   1.393       .  A
C839       Br846   1.920   1_554  S
C840        C841   1.410       .  A
C840        H845   1.082       .  S
C841        C842   1.409   1_565  A
C842       Br843   1.914       .  S
C847        C848   1.403       .  A
C847        C852   1.392       .  A
C847        H854   1.084       .  S
C848        C849   1.410       .  A
C849        C850   1.415       .  A
C849       Br856   1.914       .  S
C850        C851   1.409       .  A
C850        H855   1.082       .  S
C851        C852   1.412       .  A
C852       Br853   1.916       .  S
C857        C858   1.408       .  A
C857        C862   1.407       .  A
C857        H864   1.083       .  S
C858        C859   1.426       .  A
C859        C860   1.394       .  A
C859       Br866   1.928       .  S
C860        C861   1.397       .  A
C860        H865   1.084       .  S
C861        C862   1.412       .  A
C862       Br863   1.918       .  S
C867        C868   1.403       .  A
C867        C872   1.397       .  A
C867        H874   1.084       .  S
C868        C869   1.412       .  A
C869        C870   1.416       .  A
C869       Br876   1.910       .  S
C870        C871   1.408       .  A
C870        H875   1.083       .  S
C871        C872   1.417       .  A
C872       Br873   1.924       .  S
C877        C878   1.401       .  A
C877        C882   1.398       .  A
C877        H884   1.083       .  S
C878        C879   1.424       .  A
C879        C880   1.397       .  A
C879       Br886   1.926       .  S
C880        C881   1.399       .  A
C880        H885   1.084       .  S
C881        C882   1.418       .  A
C882       Br883   1.921       .  S
C887        C888   1.413       .  A
C887        C892   1.400       .  A
C887        H894   1.083       .  S
C888        C889   1.408       .  A
C889        C890   1.412       .  A
C889       Br896   1.917       .  S
C890        C891   1.412       .  A
C890        H895   1.083       .  S
C891        C892   1.399       .  A
C892       Br893   1.920       .  S
C897        C898   1.405       .  A
C897        C902   1.411       .  A
C897        H904   1.083       .  S
C898        C899   1.431       .  A
C899        C900   1.397       .  A
C899       Br906   1.927       .  S
C900        C901   1.394       .  A
C900        H905   1.084       .  S
C901        C902   1.419       .  A
C902       Br903   1.919       .  S
C907        C908   1.411       .  A
C907        C912   1.415       .  A
C907        H914   1.083       .  S
C908        C909   1.420       .  A
C909        C910   1.395       .  A
C909       Br916   1.924       .  S
C910        C911   1.399       .  A
C910        H915   1.083       .  S
C911        C912   1.409       .  A
C912       Br913   1.911       .  S
C917        C918   1.403       .  A
C917        C922   1.409       .  A
C917        H924   1.080       .  S
C918        C919   1.404       .  A
C919        C920   1.403       .  A
C919       Br926   1.913       .  S
C920        C921   1.411       .  A
C920        H925   1.084       .  S
C921        C922   1.407       .  A
C922       Br923   1.913       .  S
C927        C928   1.401       .  A
C927        C932   1.391       .  A
C927        H934   1.085       .  S
C928        C929   1.410       .  A
C929        C930   1.410       .  A
C929       Br936   1.915       .  S
C930        C931   1.408       .  A
C930        H935   1.083       .  S
C931        C932   1.417       .  A
C932       Br933   1.922       .  S
C937        C938   1.401       .  A
C937        C942   1.401       .  A
C937        H944   1.085       .  S
C938        C939   1.424       .  A
C939        C940   1.406       .  A
C939       Br946   1.921       .  S
C940        C941   1.400       .  A
C940        H945   1.083       .  S
C941        C942   1.417       .  A
C942       Br943   1.920       .  S
C947        C948   1.407       .  A
C947        C952   1.399       .  A
C947        H954   1.084       .  S
C948        C949   1.409       .  A
C949        C950   1.411       .  A
C949       Br956   1.915       .  S
C950        C951   1.406       .  A
C950        H955   1.080       .  S
C951        C952   1.410       .  A
C952       Br953   1.919       .  S
C957        C958   1.400       .  A
C957        C962   1.402       .  A
C957        H964   1.084       .  S
C958        C959   1.420       .  A
C959        C960   1.400       .  A
C959       Br966   1.921       .  S
C960        C961   1.399       .  A
C960        H965   1.084       .  S
C961        C962   1.421       .  A
C962       Br963   1.920       .  S
C967        C968   1.405       .  A
C967        C972   1.406       .  A
C967        H974   1.083       .  S
C968        C969   1.424       .  A
C969        C970   1.397       .  A
C969       Br976   1.925       .  S
C970        C971   1.398       .  A
C970        H975   1.084       .  S
C971        C972   1.416       .  A
C972       Br973   1.919       .  S
C977        C978   1.410       .  A
C977        C982   1.389       .  A
C977        H984   1.083       .  S
C978        C979   1.410       .  A
C979        C980   1.404       .  A
C979       Br986   1.918       .  S
C980        C981   1.411       .  A
C980        H985   1.083       .  S
C981        C982   1.407       .  A
C982       Br983   1.922       .  S
C987        C988   1.406       .  A
C987        C992   1.412       .  A
C987        H994   1.076       .  S
C988        C989   1.404       .  A
C989        C990   1.401       .  A
C989       Br996   1.910       .  S
C990        C991   1.407       .  A
C990        H995   1.081       .  S
C991        C992   1.408       .  A
C992       Br993   1.910       .  S
C997        C998   1.400       .  A
C997       C1002   1.401       .  A
C997       H1004   1.081       .  S
C998        C999   1.408       .  A
C999       C1000   1.418       .  A
C999      Br1006   1.915       .  S
C1000      C1001   1.413       .  A
C1000      H1005   1.082       .  S
C1001      C1002   1.422       .  A
C1002     Br1003   1.920       .  S
C1007      C1008   1.405       .  A
C1007      C1012   1.411       .  A
C1007      H1014   1.083       .  S
C1008      C1009   1.424       .  A
C1009      C1010   1.393       .  A
C1009     Br1016   1.924       .  S
C1010      C1011   1.394       .  A
C1010      H1015   1.085       .  S
C1011      C1012   1.415       .  A
C1012     Br1013   1.917       .  S
C1017      C1018   1.401       .  A
C1017      C1022   1.405       .  A
C1017      H1024   1.083       .  S
C1018      C1019   1.424       .  A
C1019      C1020   1.407       .  A
C1019     Br1026   1.920       .  S
C1020      C1021   1.402       .  A
C1020      H1025   1.084       .  S
C1021      C1022   1.423       .  A
C1022     Br1023   1.921       .  S
C1027      C1028   1.404       .  A
C1027      C1032   1.406       .  A
C1027      H1034   1.083       .  S
C1028      C1029   1.420       .  A
C1029      C1030   1.405       .  A
C1029     Br1036   1.920       .  S
C1030      C1031   1.403       .  A
C1030      H1035   1.083       .  S
C1031      C1032   1.422       .  A
C1032     Br1033   1.922       .  S
C1037      C1038   1.397       .  A
C1037      C1042   1.392       .  A
C1037      H1044   1.084       .  S
C1038      C1039   1.409       .  A
C1039      C1040   1.412       .  A
C1039     Br1046   1.916       .  S
C1040      C1041   1.409       .  A
C1040      H1045   1.083       .  S
C1041      C1042   1.414       .  A
C1042     Br1043   1.915       .  S
C1047      C1048   1.405       .  A
C1047      C1052   1.403       .  A
C1047      H1054   1.083       .  S
C1048      C1049   1.421       .  A
C1049      C1050   1.399       .  A
C1049     Br1056   1.924       .  S
C1050      C1051   1.400       .  A
C1050      H1055   1.083       .  S
C1051      C1052   1.417       .  A
C1052     Br1053   1.922       .  S
C1057      C1058   1.407       .  A
C1057      C1062   1.415       .  A
C1057      H1064   1.083       .  S
C1058      C1059   1.422       .  A
C1059      C1060   1.391       .  A
C1059     Br1066   1.929       .  S
C1060      C1061   1.396       .  A
C1060      H1065   1.082       .  S
C1061      C1062   1.415       .  A
C1062     Br1063   1.913       .  S
C1067      C1068   1.411       .  A
C1067      C1072   1.405       .  A
C1067      H1074   1.083       .  S
C1068      C1069   1.409       .  A
C1069      C1070   1.411       .  A
C1069     Br1076   1.916       .  S
C1070      C1071   1.415       .  A
C1070      H1075   1.083       .  S
C1071      C1072   1.403       .  A
C1072     Br1073   1.913       .  S
C1077      C1078   1.409       .  A
C1077      C1082   1.406       .  A
C1077      H1084   1.083       .  S
C1078      C1079   1.408       .  A
C1079      C1080   1.400       .  A
C1079     Br1086   1.914       .  S
C1080      C1081   1.402       .  A
C1080      H1085   1.080       .  S
C1081      C1082   1.406       .  A
C1082     Br1083   1.915       .  S
