geometry optimzed in LAMMPS
_audit_creation_date              2020-11-30 
_audit_creation_method            'lammps2cif' 
_symmetry_space_group_name_H-M    'P1' 
_symmetry_Int_Tables_number       1 
_symmetry_cell_setting            triclinic 
loop_ 
_symmetry_equiv_pos_as_xyz 
  x,y,z 
_cell_length_a                    53.7399969 
_cell_length_b                    53.98167982003692 
_cell_length_c                    53.20793642095905 
_cell_angle_alpha                 90.12562259289598 
_cell_angle_beta                  89.28453444772909 
_cell_angle_gamma                 89.6036020178448 
loop_ 
_atom_site_label 
_atom_site_type_symbol 
_atom_site_fract_x 
_atom_site_fract_y 
_atom_site_fract_z 
_atom_site_charge 
O1          O  0.24349313  0.69396464  0.74561408    -0.80100
O2          O  0.24033361  0.80671386  0.77245463    -0.80200
O3          O  0.23793740  0.72914714  0.81962527    -0.80200
O4          O  0.21323202  0.75023988  0.71501628    -0.80100
O5          O  0.22772786  0.76546434  0.80312080    -0.80200
O6          O  0.24077015  0.72307749  0.70183600    -0.80200
O7          O  0.21374169  0.78981923  0.74834764    -0.80100
O8          O  0.22060799  0.71364481  0.77397494    -0.80200
C9          C  0.22544722  0.69383176  0.76147774     1.09600
C10         C  0.22081704  0.80906153  0.75961057     1.09400
C11         C  0.22524617  0.74901568  0.82084376     1.09600
C12         C  0.22002267  0.73447616  0.69868055     1.09500
O13         O  0.28926459  0.74399230  0.71503150    -0.80100
O14         O  0.27078097  0.79053630  0.80898184    -0.80200
O15         O  0.26951596  0.70269421  0.78664968    -0.80100
O16         O  0.26365778  0.80169490  0.73037113    -0.80100
O17         O  0.28781889  0.78805389  0.76036572    -0.80200
O18         O  0.29253476  0.71376923  0.75542292    -0.80100
O19         O  0.26082410  0.76469669  0.69533636    -0.80100
O20         O  0.28018747  0.75098080  0.80496379    -0.80200
Co21       Co  0.26590732  0.72072707  0.73090958     1.51500
Co22       Co  0.25875757  0.77464055  0.77990427     1.51700
Co23       Co  0.24905329  0.73458471  0.78643934     1.51600
Co24       Co  0.23839658  0.77480821  0.72455938     1.51500
O25         O  0.25219740  0.75035259  0.75139032    -1.42100
C26         C  0.28193038  0.75404979  0.69522534     1.09500
C27         C  0.28275759  0.77198072  0.81689506     1.09600
C28         C  0.28785437  0.69793284  0.77215822     1.09500
C29         C  0.28317547  0.80407622  0.74345927     1.09500
O30         O  0.74087606  0.24435052  0.68240141    -0.80100
O31         O  0.77739687  0.24294062  0.79488568    -0.80200
O32         O  0.79967049  0.21694450  0.73669463    -0.80200
O33         O  0.72254411  0.21446486  0.73710156    -0.80100
O34         O  0.81489928  0.24592633  0.75952505    -0.80200
O35         O  0.70482832  0.24388548  0.71635908    -0.80200
O36         O  0.75843455  0.21494191  0.77374559    -0.80100
O37         O  0.76271616  0.21640139  0.70162896    -0.80200
C38         C  0.75170410  0.22326418  0.68217623     1.09600
C39         C  0.76672524  0.22188703  0.79448240     1.09400
C40         C  0.81776426  0.22487747  0.74909443     1.09600
C41         C  0.70443600  0.22178379  0.72416887     1.09500
O42         O  0.71860816  0.29136268  0.73740515    -0.80100
O43         O  0.79399529  0.29258527  0.74091337    -0.80200
O44         O  0.77992997  0.26476203  0.68282410    -0.80100
O45         O  0.73675982  0.26152345  0.79426335    -0.80100
O46         O  0.75723695  0.29040155  0.77553862    -0.80200
O47         O  0.75788958  0.29257886  0.70231120    -0.80100
O48         O  0.70257676  0.26076150  0.75813010    -0.80100
O49         O  0.81451557  0.26593707  0.71846929    -0.80200
Co50       Co  0.73303347  0.26779629  0.71210023     1.51500
Co51       Co  0.78385160  0.26745148  0.76548501     1.51700
Co52       Co  0.78676008  0.24124487  0.71228163     1.51600
Co53       Co  0.73246159  0.23832921  0.76354070     1.51500
O54         O  0.75901570  0.25366887  0.73839760    -1.42100
C55         C  0.70039485  0.28269412  0.74983196     1.09500
C56         C  0.81303455  0.28746576  0.72800575     1.09600
C57         C  0.76880063  0.28563532  0.68247028     1.09500
C58         C  0.74653314  0.28294632  0.79503182     1.09500
O59         O  0.70688262  0.74803672  0.21864870    -0.80100
O60         O  0.80132142  0.73922227  0.23009164    -0.80200
O61         O  0.73840807  0.79334520  0.23353317    -0.80200
O62         O  0.76683716  0.69124824  0.23773176    -0.80100
O63         O  0.77192146  0.77968726  0.21468365    -0.80200
O64         O  0.73845641  0.70569156  0.21153387    -0.80200
O65         O  0.79025260  0.70371009  0.24785366    -0.80100
O66         O  0.69922207  0.77302615  0.25046767    -0.80200
C67         C  0.69308167  0.76421198  0.22934438     1.09600
C68         C  0.80601244  0.71663102  0.23498559     1.09400
C69         C  0.75374050  0.79461731  0.21537918     1.09600
C70         C  0.75528402  0.68988773  0.21667843     1.09500
O71         O  0.72464152  0.68839360  0.26106600    -0.80100
O72         O  0.76844333  0.79683230  0.26796051    -0.80200
O73         O  0.72099034  0.75276472  0.29437495    -0.80100
O74         O  0.79417139  0.71702539  0.28432272    -0.80100
O75         O  0.79305748  0.75696798  0.28164523    -0.80200
O76         O  0.69726159  0.73064424  0.26919084    -0.80100
O77         O  0.75658285  0.68097824  0.28544870    -0.80100
O78         O  0.72969500  0.80242933  0.28238479    -0.80200
Co79       Co  0.71945244  0.72054846  0.24000880     1.51500
Co80       Co  0.78122826  0.76560165  0.24785168     1.51700
Co81       Co  0.73341083  0.77181429  0.26467715     1.51600
Co82       Co  0.75950376  0.71282411  0.26923783     1.51500
O83         O  0.74995549  0.74249958  0.24992325    -1.42100
C84         C  0.73579680  0.67390802  0.27671667     1.09500
C85         C  0.75207587  0.81001874  0.28035996     1.09600
C86         C  0.70126813  0.74031818  0.29061945     1.09500
C87         C  0.80461199  0.73781040  0.28773269     1.09500
C88         C  0.52382425  0.00998828  0.00631491     0.02300
C89         C  0.52245232  0.03059628  0.98913226     0.02300
C90         C  0.50583522  0.02876974  0.96800223     0.02300
C91         C  0.48701550  0.00971602  0.96755592     0.02300
C92         C  0.48554926  0.99228001  0.98798938     0.02300
C93         C  0.50532731  0.99081643  0.00582906     0.02300
C94         C  0.69187143  0.96174092  0.15927218     0.03100
C95         C  0.67047317  0.96197466  0.14423418    -0.13000
C96         C  0.66201943  0.98406192  0.13281098     0.00600
C97         C  0.67516655  0.00584994  0.13813754    -0.11500
C98         C  0.69166995  0.00697236  0.15814491     0.03100
C99         C  0.70124038  0.98462251  0.16791706    -0.11000
H100        H  0.66052753  0.94450526  0.14177968     0.08700
H101        H  0.67080529  0.02293005  0.12841501     0.06200
H102        H  0.71549777  0.98500156  0.18214692     0.06100
C103        C  0.67204936  0.18481731  0.95557904     0.03100
C104        C  0.64651885  0.17946268  0.95307193    -0.13000
C105        C  0.63126538  0.17559769  0.97455261     0.00600
C106        C  0.64099846  0.18198459  0.99805773    -0.11500
C107        C  0.66615033  0.18807841  0.00114159     0.03100
C108        C  0.68185665  0.18785709  0.97973276    -0.11000
H109        H  0.63902322  0.17702741  0.93458936     0.08700
H110        H  0.62905597  0.18110420  0.01458892     0.06200
H111        H  0.70159847  0.19070749  0.98166071     0.06100
C112        C  0.33579805  0.97363996  0.79836948     0.03100
C113        C  0.35792844  0.97389656  0.81214744    -0.13000
C114        C  0.36493146  0.99493277  0.82580910     0.00600
C115        C  0.34992478  0.01632461  0.82487490    -0.11500
C116        C  0.32825431  0.01717266  0.81028732     0.03100
C117        C  0.32102342  0.99547607  0.79726930    -0.11000
H118        H  0.36939975  0.95736979  0.81280906     0.08700
H119        H  0.35532522  0.03262909  0.83536085     0.06200
H120        H  0.30419635  0.99565845  0.78611610     0.06100
C121        C  0.53806491  0.17123295  0.78890219     0.03100
C122        C  0.53845240  0.15135432  0.80584123    -0.13000
C123        C  0.51703663  0.14484222  0.81935568     0.00600
C124        C  0.49471081  0.15763787  0.81538270    -0.11500
C125        C  0.49368794  0.17774465  0.79868874     0.03100
C126        C  0.51559758  0.18458295  0.78542741    -0.11000
H127        H  0.55556537  0.14142248  0.80903552     0.08700
H128        H  0.47820913  0.15237409  0.82592159     0.06200
H129        H  0.51521421  0.20014824  0.77270739     0.06100
C130        C  0.52778163  0.82620524  0.16705303     0.03100
C131        C  0.50411565  0.82190215  0.17753314    -0.13000
C132        C  0.48266567  0.83218419  0.16672868     0.00600
C133        C  0.48518973  0.84733701  0.14536207    -0.11500
C134        C  0.50883754  0.85237567  0.13502115     0.03100
C135        C  0.52999114  0.84160929  0.14588665    -0.11000
H136        H  0.50232091  0.81003677  0.19388445     0.08700
H137        H  0.46883248  0.85530754  0.13689148     0.06200
H138        H  0.54826828  0.84532830  0.13789875     0.06100
C139        C  0.32867052  0.83556010  0.98855804     0.03100
C140        C  0.34541177  0.85548226  0.98963276    -0.13000
C141        C  0.34915006  0.86842499  0.01226064     0.00600
C142        C  0.33616389  0.86123789  0.03404283    -0.11500
C143        C  0.31944621  0.84139642  0.03363919     0.03100
C144        C  0.31563271  0.82866369  0.01071678    -0.11000
H145        H  0.35547758  0.86104985  0.97272401     0.08700
H146        H  0.33930897  0.87097194  0.05146978     0.06200
H147        H  0.30271362  0.81341293  0.01015562     0.06100
C148        C  0.96954248  0.48384816  0.00523274     0.02300
C149        C  0.98760094  0.48608100  0.98473665     0.02300
C150        C  0.00702465  0.50473901  0.98547881     0.02300
C151        C  0.00810463  0.52093736  0.00705919     0.02300
C152        C  0.99210004  0.51684534  0.02863694     0.02300
C153        C  0.97216125  0.49910275  0.02753244     0.02300
C154        C  0.16093646  0.68922261  0.98425968     0.03100
C155        C  0.13935798  0.67463550  0.98359144    -0.13000
C156        C  0.13155551  0.66106333  0.00479580     0.00600
C157        C  0.14534987  0.66272296  0.02705543    -0.11500
C158        C  0.16651118  0.67784031  0.02840397     0.03100
C159        C  0.17436350  0.69091579  0.00681331    -0.11000
H160        H  0.12893849  0.67354311  0.96652011     0.08700
H161        H  0.13960753  0.65226569  0.04337912     0.06200
H162        H  0.19092242  0.70236221  0.00755257     0.06100
C163        C  0.17423287  0.52080434  0.82270501     0.03100
C164        C  0.15449504  0.52071602  0.84042452    -0.13000
C165        C  0.14804588  0.49898826  0.85350326     0.00600
C166        C  0.16149906  0.47704129  0.84882987    -0.11500
C167        C  0.18130968  0.47635925  0.83133398     0.03100
C168        C  0.18768008  0.49840561  0.81829418    -0.11000
H169        H  0.14419370  0.53772980  0.84420483     0.08700
H170        H  0.15646149  0.46039117  0.85878060     0.06200
H171        H  0.20302408  0.49815689  0.80486089     0.06100
C172        C  0.98317450  0.65028027  0.20609571     0.03100
C173        C  0.00451278  0.65905976  0.21857970    -0.13000
C174        C  0.02818508  0.64815424  0.21420567     0.00600
C175        C  0.03049717  0.62912506  0.19629032    -0.11500
C176        C  0.00976386  0.62011860  0.18362341     0.03100
C177        C  0.98614353  0.63017623  0.18925734    -0.11000
H178        H  0.00284507  0.67448905  0.23139969     0.08700
H179        H  0.04874421  0.62133388  0.19196256     0.06200
H180        H  0.97002837  0.62281045  0.17972459     0.06100
C181        C  0.80962573  0.46946680  0.19243512     0.03100
C182        C  0.79569216  0.49141694  0.19692847    -0.13000
C183        C  0.80071391  0.51305124  0.18279495     0.00600
C184        C  0.81911687  0.51206105  0.16382120    -0.11500
C185        C  0.83345703  0.49058944  0.15966477     0.03100
C186        C  0.82877014  0.46955253  0.17426735    -0.11000
H187        H  0.78127328  0.49170456  0.21133790     0.08700
H188        H  0.82292296  0.52846869  0.15275079     0.06200
H189        H  0.84008988  0.45302603  0.17147205     0.06100
C190        C  0.01360305  0.34524300  0.80459973     0.03100
C191        C  0.99229913  0.34125816  0.79005850    -0.13000
C192        C  0.96961276  0.35274146  0.79677029     0.00600
C193        C  0.96856005  0.36899924  0.81727278    -0.11500
C194        C  0.98926464  0.37234078  0.83264671     0.03100
C195        C  0.01165088  0.35998653  0.82635845    -0.11000
H196        H  0.99330407  0.32917621  0.77385492     0.08700
H197        H  0.95117299  0.37855303  0.82169593     0.06200
H198        H  0.02784047  0.36207178  0.83829127     0.06100
C199        C  0.80870096  0.32186914  0.01356814     0.03100
C200        C  0.82566394  0.34156748  0.01437905    -0.13000
C201        C  0.83072839  0.35586087  0.99297149     0.00600
C202        C  0.81818333  0.35089633  0.97056391    -0.11500
C203        C  0.80067807  0.33167755  0.96935038     0.03100
C204        C  0.79599916  0.31720870  0.99098711    -0.11000
H205        H  0.83566771  0.34529346  0.03168379     0.08700
H206        H  0.82241830  0.36152457  0.95408247     0.06200
H207        H  0.78298387  0.30188061  0.99004816     0.06100
C208        C  0.50373347  0.48052459  0.53033656     0.02300
C209        C  0.52111526  0.47884744  0.50906781     0.02300
C210        C  0.52027062  0.49760944  0.48978718     0.02300
C211        C  0.50447243  0.51913329  0.49276135     0.02300
C212        C  0.48671833  0.52059650  0.51338451     0.02300
C213        C  0.48581326  0.50095948  0.53214721     0.02300
C214        C  0.48291554  0.30892167  0.68280864     0.03100
C215        C  0.50496484  0.30419416  0.69664015    -0.13000
C216        C  0.52507829  0.32115671  0.69595180     0.00600
C217        C  0.52323205  0.34229660  0.68076284    -0.11500
C218        C  0.50248454  0.34630934  0.66553150     0.03100
C219        C  0.48227083  0.33008911  0.66738219    -0.11000
H220        H  0.50663113  0.28742567  0.70759925     0.08700
H221        H  0.53875401  0.35500851  0.67969337     0.06200
H222        H  0.46599824  0.33373964  0.65620215     0.06100
C223        C  0.32773769  0.68353510  0.48296232     0.03100
C224        C  0.32404191  0.69959323  0.50343734    -0.13000
C225        C  0.33888073  0.69715511  0.52479357     0.00600
C226        C  0.35814036  0.67950500  0.52508108    -0.11500
C227        C  0.36062709  0.66199922  0.50563384     0.03100
C228        C  0.34500096  0.66405574  0.48480313    -0.11000
H229        H  0.30950942  0.71352666  0.50293407     0.08700
H230        H  0.36998335  0.67834219  0.54130152     0.06200
H231        H  0.34651286  0.65066741  0.46963343     0.06100
C232        C  0.64649152  0.45945796  0.29652302     0.03100
C233        C  0.62889038  0.45870728  0.31617943    -0.13000
C234        C  0.62444746  0.47959091  0.33119939     0.00600
C235        C  0.63855787  0.50104428  0.32713263    -0.11500
C236        C  0.65441519  0.50357621  0.30589883     0.03100
C237        C  0.65783790  0.48229959  0.29033007    -0.11000
H238        H  0.61936113  0.44162447  0.32037381     0.08700
H239        H  0.63666265  0.51609402  0.34059185     0.06200
H240        H  0.66958454  0.48310584  0.27367356     0.06100
C241        C  0.48817832  0.67631559  0.33188825     0.03100
C242        C  0.50883280  0.69137208  0.32550162    -0.13000
C243        C  0.53132776  0.68938500  0.33898461     0.00600
C244        C  0.53278306  0.67242620  0.35882732    -0.11500
C245        C  0.51260673  0.65749535  0.36539635     0.03100
C246        C  0.49032616  0.65948253  0.35195247    -0.11000
H247        H  0.50740853  0.70447246  0.31014085     0.08700
H248        H  0.54996362  0.67050134  0.36902080     0.06200
H249        H  0.47473028  0.64782675  0.35698468     0.06100
C250        C  0.31658622  0.48467798  0.69117781     0.03100
C251        C  0.33554789  0.48584143  0.67276545    -0.13000
C252        C  0.34956619  0.50746388  0.66933944     0.00600
C253        C  0.34438150  0.52834041  0.68442036    -0.11500
C254        C  0.32541645  0.52780824  0.70294293     0.03100
C255        C  0.31154160  0.50581269  0.70626453    -0.11000
H256        H  0.33975597  0.46963836  0.66136105     0.08700
H257        H  0.35512497  0.54494092  0.68179860     0.06200
H258        H  0.29706024  0.50508579  0.72061185     0.06100
C259        C  0.67382091  0.31347567  0.47416584     0.03100
C260        C  0.65477367  0.33064803  0.48032560    -0.13000
C261        C  0.65473629  0.34362899  0.50327956     0.00600
C262        C  0.67314314  0.33835059  0.52096728    -0.11500
C263        C  0.69210055  0.32089456  0.51585133     0.03100
C264        C  0.69252475  0.30872583  0.49220371    -0.11000
H265        H  0.64034089  0.33454692  0.46686593     0.08700
H266        H  0.67284037  0.34813435  0.53883428     0.06200
H267        H  0.70740771  0.29574831  0.48781922     0.06100
C268        C  0.99697353  0.96451641  0.48935064     0.02300
C269        C  0.01517563  0.96316032  0.50932815     0.02300
C270        C  0.01519367  0.98204417  0.52868664     0.02300
C271        C  0.99815307  0.00297635  0.52726344     0.02300
C272        C  0.98025137  0.00450827  0.50729266     0.02300
C273        C  0.97982974  0.98538580  0.48811746     0.02300
C274        C  0.98665385  0.17387962  0.67888660     0.03100
C275        C  0.98629128  0.15515814  0.66051844    -0.13000
C276        C  0.00775589  0.14932257  0.64647551     0.00600
C277        C  0.02964050  0.16253163  0.65029299    -0.11500
C278        C  0.03121042  0.18004601  0.66970017     0.03100
C279        C  0.00943565  0.18586505  0.68391052    -0.11000
H280        H  0.96918971  0.14497190  0.65720350     0.08700
H281        H  0.04589622  0.15816315  0.63896590     0.06200
H282        H  0.01020022  0.19946212  0.69881733     0.06100
C283        C  0.16716040  0.02625801  0.69259714     0.03100
C284        C  0.14547734  0.02351396  0.67803537    -0.13000
C285        C  0.13689477  0.99992694  0.67057582     0.00600
C286        C  0.14993442  0.97889713  0.67903264    -0.11500
C287        C  0.16969627  0.98088010  0.69589097     0.03100
C288        C  0.17889548  0.00459588  0.70188956    -0.11000
H289        H  0.13544428  0.03992185  0.67229355     0.08700
H290        H  0.14430544  0.96061663  0.67304027     0.06200
H291        H  0.19506657  0.00609596  0.71368579     0.06100
C292        C  0.17854029  0.80079450  0.48069042     0.03100
C293        C  0.18375433  0.78766251  0.50305971    -0.13000
C294        C  0.17090505  0.79344409  0.52579061     0.00600
C295        C  0.15275603  0.81246110  0.52572225    -0.11500
C296        C  0.14748831  0.82565941  0.50357421     0.03100
C297        C  0.16044432  0.81966684  0.48130945    -0.11000
H298        H  0.19793000  0.77332030  0.50286907     0.08700
H299        H  0.14292132  0.81719242  0.54300349     0.06200
H300        H  0.15651788  0.82993401  0.46429656     0.06100
C301        C  0.81200483  0.16658306  0.51234438     0.03100
C302        C  0.80551649  0.17343498  0.48772846    -0.13000
C303        C  0.81959608  0.16463152  0.46693181     0.00600
C304        C  0.83819255  0.14667263  0.47131315    -0.11500
C305        C  0.84530198  0.13971634  0.49573740     0.03100
C306        C  0.83290591  0.15130490  0.51605838    -0.11000
H307        H  0.78977368  0.18573695  0.48484993     0.08700
H308        H  0.84743094  0.13822563  0.45534750     0.06200
H309        H  0.83906250  0.14815281  0.53511233     0.06100
C310        C  0.82342619  0.97746828  0.32595655     0.03100
C311        C  0.84152516  0.97936691  0.34469934    -0.13000
C312        C  0.85313425  0.00210903  0.34957938     0.00600
C313        C  0.84652695  0.02304940  0.33561560    -0.11500
C314        C  0.82844395  0.02155772  0.31692705     0.03100
C315        C  0.81685691  0.99873314  0.31213255    -0.11000
H316        H  0.84683781  0.96303171  0.35529768     0.08700
H317        H  0.85564392  0.04061391  0.33920869     0.06200
H318        H  0.80308324  0.99747994  0.29765719     0.06100
C319        C  0.97690604  0.79570339  0.33483849     0.03100
C320        C  0.99874568  0.78946369  0.32110145    -0.13000
C321        C  0.02205775  0.79883988  0.32837574     0.00600
C322        C  0.02342546  0.81321318  0.35044739    -0.11500
C323        C  0.00172446  0.82148540  0.36326920     0.03100
C324        C  0.97859863  0.81292886  0.35460653    -0.11000
H325        H  0.99761634  0.77734010  0.30490223     0.08700
H326        H  0.04152683  0.81818736  0.35724957     0.06200
H327        H  0.96151658  0.81944971  0.36348220     0.06100
O328        O  0.24682001  0.21328723  0.71882447    -0.80100
O329        O  0.24333672  0.29627771  0.72047118    -0.80200
O330        O  0.20245783  0.22991704  0.75451052    -0.80200
O331        O  0.30840814  0.27280266  0.73699300    -0.80100
O332        O  0.21365588  0.25308400  0.72254004    -0.80200
O333        O  0.28850323  0.25037907  0.70897624    -0.80200
O334        O  0.27350371  0.30854897  0.74531022    -0.80100
O335        O  0.22405364  0.20897152  0.75402145    -0.80200
C336        C  0.23102195  0.20070414  0.73197511     1.09600
C337        C  0.25918265  0.31232897  0.72662675     1.09400
C338        C  0.19736684  0.23898714  0.73251350     1.09600
C339        C  0.30698326  0.26411350  0.71493823     1.09500
O340        O  0.31095975  0.22945081  0.75219329    -0.80100
O341        O  0.19870233  0.29240489  0.74691892    -0.80200
O342        O  0.25116843  0.20761151  0.79148767    -0.80100
O343        O  0.26699660  0.29017905  0.79662520    -0.80100
O344        O  0.23618595  0.30221495  0.77348836    -0.80200
O345        O  0.27383731  0.19746593  0.75847089    -0.80100
O346        O  0.30227719  0.25203814  0.78575558    -0.80100
O347        O  0.20006743  0.26334383  0.77657605    -0.80200
Co348      Co  0.27771170  0.22565443  0.73537984     1.51500
Co349      Co  0.22898523  0.27552546  0.74752293     1.51700
Co350      Co  0.23118524  0.23777323  0.77918128     1.51600
Co351      Co  0.28534579  0.27866510  0.76593274     1.51500
O352        O  0.25800621  0.25371068  0.75503612    -1.42100
C353        C  0.31664667  0.23696778  0.77403733     1.09500
C354        C  0.18809724  0.28129862  0.76501974     1.09600
C355        C  0.26454812  0.19181107  0.77942447     1.09500
C356        C  0.24956708  0.30538099  0.79260740     1.09500
O357        O  0.75457129  0.18252866  0.25535504    -0.80100
O358        O  0.77122759  0.28947802  0.23497540    -0.80200
O359        O  0.77379223  0.21263757  0.18246327    -0.80200
O360        O  0.78187002  0.23618129  0.27573359    -0.80100
O361        O  0.78234667  0.24725799  0.20141071    -0.80200
O362        O  0.75166625  0.21568373  0.29285446    -0.80200
O363        O  0.77477937  0.28722045  0.27652380    -0.80100
O364        O  0.78256440  0.20271831  0.23338413    -0.80200
C365        C  0.77641791  0.18368711  0.24585361     1.09600
C366        C  0.77943061  0.29831458  0.25592289     1.09400
C367        C  0.78360058  0.23413573  0.18119059     1.09600
C368        C  0.77421215  0.22123755  0.29265244     1.09500
O369        O  0.70473083  0.23229799  0.28346338    -0.80100
O370        O  0.73477709  0.25544417  0.17983516    -0.80200
O371        O  0.73525313  0.18343018  0.21412304    -0.80100
O372        O  0.72836325  0.28645884  0.25837209    -0.80100
O373        O  0.72050809  0.28547973  0.21848970    -0.80200
O374        O  0.70483506  0.19507723  0.24025257    -0.80100
O375        O  0.73490734  0.25778054  0.29447609    -0.80100
O376        O  0.72400240  0.22026328  0.19330418    -0.80200
Co377      Co  0.72892638  0.20887498  0.26539183     1.51500
Co378      Co  0.75076147  0.26549417  0.21239855     1.51700
Co379      Co  0.75411901  0.21560897  0.21362552     1.51600
Co380      Co  0.75567064  0.26060288  0.26317335     1.51500
O381        O  0.73969853  0.23679402  0.24025477    -1.42100
C382        C  0.71422870  0.24737486  0.29962971     1.09500
C383        C  0.72387735  0.23546341  0.17593069     1.09600
C384        C  0.71369826  0.17979105  0.22387409     1.09500
C385        C  0.71638559  0.29464096  0.23980129     1.09500
O386        O  0.30479538  0.70310776  0.24126423    -0.80100
O387        O  0.20831044  0.71122696  0.28520358    -0.80200
O388        O  0.28537767  0.73165546  0.30232947    -0.80200
O389        O  0.23348825  0.72879775  0.20043505    -0.80100
O390        O  0.26033445  0.70225876  0.28886764    -0.80200
O391        O  0.26194978  0.70158803  0.21008163    -0.80200
O392        O  0.21472584  0.71251928  0.24453706    -0.80100
O393        O  0.31980416  0.73311597  0.26511464    -0.80200
C394        C  0.32192966  0.71152084  0.25521581     1.09600
C395        C  0.20047022  0.70627387  0.26329839     1.09400
C396        C  0.27603410  0.71034347  0.30486835     1.09600
C397        C  0.24488297  0.70864364  0.19549525     1.09500
O398        O  0.27234736  0.75339039  0.19597546    -0.80100
O399        O  0.24089052  0.74797097  0.30478109    -0.80200
O400        O  0.30052815  0.78059525  0.24881150    -0.80100
O401        O  0.19873857  0.75709407  0.22821627    -0.80100
O402        O  0.21164741  0.75701694  0.26694906    -0.80200
O403        O  0.31420760  0.75168463  0.22283689    -0.80100
O404        O  0.24610162  0.77676849  0.21829048    -0.80100
O405        O  0.26411398  0.77836442  0.28995645    -0.80200
Co406      Co  0.28642933  0.72750055  0.21987120     1.51500
Co407      Co  0.23771103  0.72785941  0.27337241     1.51700
Co408      Co  0.29029626  0.75556427  0.27452014     1.51600
Co409      Co  0.23221738  0.74614232  0.23413774     1.51500
O410        O  0.26559492  0.73948916  0.25026385    -1.42100
C411        C  0.25988553  0.77352550  0.19884221     1.09500
C412        C  0.24957647  0.76968019  0.30700688     1.09600
C413        C  0.31580758  0.77336673  0.23178769     1.09500
C414        C  0.19379305  0.76102985  0.25126229     1.09500
C415        C  0.04533735  0.79388973  0.31322097     0.01300
C416        C  0.05762625  0.77082305  0.31462307     0.04200
C417        C  0.08029988  0.76671258  0.30144115    -0.11900
C418        C  0.09241748  0.78631210  0.28859968     0.23500
C419        C  0.08029047  0.80963566  0.28767646    -0.12500
C420        C  0.05637274  0.81294695  0.29876674     0.04900
C421        C  0.11866877  0.78265152  0.27848869     0.27300
C422        C  0.13797002  0.77767638  0.29537392    -0.13200
C423        C  0.16143280  0.76907066  0.28668208     0.05400
C424        C  0.16803569  0.76965046  0.26053315    -0.09100
C425        C  0.14891824  0.77702456  0.24358555     0.06200
C426        C  0.12432495  0.78236404  0.25246828    -0.13500
Br427      Br  0.09713393  0.83768760  0.27308595    -0.05600
Br428      Br  0.04435103  0.74539188  0.33622254     0.00100
Br429      Br  0.18175350  0.75332706  0.31171427     0.00500
Br430      Br  0.09808236  0.78882616  0.22880419    -0.03900
Br431      Br  0.03840551  0.84351381  0.29367775     0.00600
Br432      Br  0.09518982  0.73418012  0.30184138    -0.03200
Br433      Br  0.13196527  0.78261362  0.33102831    -0.04100
Br434      Br  0.15527139  0.77974589  0.20786832    -0.00100
C435        C  0.82211439  0.04418297  0.30246434     0.01300
C436        C  0.80096395  0.05841187  0.30915038     0.04200
C437        C  0.79649447  0.08134165  0.29733198    -0.11900
C438        C  0.81311579  0.09018735  0.27870650     0.23500
C439        C  0.83396979  0.07566733  0.27163408    -0.12500
C440        C  0.83849517  0.05277920  0.28353290     0.04900
C441        C  0.80823164  0.11452329  0.26636194     0.27300
C442        C  0.79309420  0.11573744  0.24503620    -0.13200
C443        C  0.78553040  0.13894327  0.23560682     0.05400
C444        C  0.79265864  0.16111926  0.24768112    -0.09100
C445        C  0.81150060  0.15970190  0.26573004     0.06200
C446        C  0.81869766  0.13653556  0.27570810    -0.13500
Br447      Br  0.85638623  0.08733471  0.24576815    -0.05600
Br448      Br  0.77862378  0.04681171  0.33518186     0.00100
Br449      Br  0.76809874  0.14016288  0.20441146     0.00500
Br450      Br  0.84265422  0.13486739  0.30223946    -0.03900
Br451      Br  0.86723506  0.03312161  0.27406168     0.00600
Br452      Br  0.76781163  0.10092534  0.30699900    -0.03200
Br453      Br  0.78287510  0.08551113  0.22884209    -0.04100
Br454      Br  0.82967108  0.18890110  0.27392432    -0.00100
C455        C  0.81574475  0.17408187  0.44057422     0.01300
C456        C  0.81500057  0.15729711  0.42006923     0.04200
C457        C  0.81592687  0.16608415  0.39517189    -0.11900
C458        C  0.81246913  0.19153197  0.39006146     0.23500
C459        C  0.81148729  0.20835111  0.41036366    -0.12500
C460        C  0.81503369  0.19988306  0.43522022     0.04900
C461        C  0.80484475  0.19925626  0.36419011     0.27300
C462        C  0.81937771  0.21479500  0.34843852    -0.13200
C463        C  0.81026309  0.22241240  0.32461265     0.05400
C464        C  0.78849877  0.21141425  0.31483814    -0.09100
C465        C  0.77672628  0.19268599  0.32960007     0.06200
C466        C  0.78264877  0.18959318  0.35486157    -0.13500
Br467      Br  0.80372615  0.24280819  0.40439594    -0.05600
Br468      Br  0.80941729  0.12232492  0.42539635     0.00100
Br469      Br  0.82751319  0.24783692  0.30611511     0.00500
Br470      Br  0.75923738  0.17301948  0.37705383    -0.03900
Br471      Br  0.82036469  0.22420855  0.46108796     0.00600
Br472      Br  0.82064859  0.14291588  0.36779188    -0.03200
Br473      Br  0.85159408  0.22544587  0.35942587    -0.04100
Br474      Br  0.75308713  0.16947416  0.31594812    -0.00100
C475        C  0.24430327  0.78262700  0.33148913     0.01300
C476        C  0.25729341  0.77474074  0.35295593     0.04200
C477        C  0.24673064  0.77732176  0.37726312    -0.11900
C478        C  0.22372792  0.78955531  0.38073403     0.23500
C479        C  0.21215680  0.80030034  0.35960102    -0.12500
C480        C  0.22243860  0.79686440  0.33509594     0.04900
C481        C  0.21251931  0.79187073  0.40674041     0.27300
C482        C  0.19500502  0.77443277  0.41564992    -0.13200
C483        C  0.18452234  0.77672354  0.44013537     0.05400
C484        C  0.19209207  0.79593402  0.45634533    -0.09100
C485        C  0.21048637  0.81260809  0.44783532     0.06200
C486        C  0.22039129  0.81078616  0.42313660    -0.13500
Br487      Br  0.18199200  0.81924220  0.36432149    -0.05600
Br488      Br  0.29051995  0.76215478  0.34905846     0.00100
Br489      Br  0.15910150  0.75408924  0.45126862     0.00500
Br490      Br  0.24473238  0.83436133  0.41155193    -0.03900
Br491      Br  0.20743854  0.81245409  0.30646286     0.00600
Br492      Br  0.26319134  0.76326995  0.40593237    -0.03200
Br493      Br  0.18560047  0.74726084  0.39427262    -0.04100
Br494      Br  0.22220746  0.83796187  0.47027379    -0.00100
C495        C  0.17710737  0.05196173  0.69755503     0.01300
C496        C  0.18106082  0.06847154  0.67732869     0.04200
C497        C  0.18458864  0.09393898  0.68157852    -0.11900
C498        C  0.19148040  0.10246016  0.70554682     0.23500
C499        C  0.19106784  0.08515207  0.72570355    -0.12500
C500        C  0.18170099  0.06086832  0.72210048     0.04900
C501        C  0.19933219  0.12909961  0.70944610     0.27300
C502        C  0.21940622  0.13974286  0.69581160    -0.13200
C503        C  0.22654633  0.16471156  0.70015387     0.05400
C504        C  0.21810660  0.17742110  0.72220845    -0.09100
C505        C  0.19870467  0.16561038  0.73655683     0.06200
C506        C  0.18737376  0.14377128  0.72783952    -0.13500
Br507      Br  0.20393741  0.09404776  0.75821501    -0.05600
Br508      Br  0.18791979  0.05593602  0.64423562     0.00100
Br509      Br  0.24988094  0.17956351  0.67684133     0.00500
Br510      Br  0.15561234  0.13352702  0.74186854    -0.03900
Br511      Br  0.17429515  0.04060550  0.75101967     0.00600
Br512      Br  0.17807414  0.11690856  0.65464574    -0.03200
Br513      Br  0.23934606  0.11942924  0.67326750    -0.04100
Br514      Br  0.18949179  0.17458754  0.77062411    -0.00100
C515        C  0.17343760  0.23193679  0.71990493     0.01300
C516        C  0.15166438  0.22709659  0.73473649     0.04200
C517        C  0.12875403  0.22212577  0.72331946    -0.11900
C518        C  0.12707453  0.22068678  0.69708714     0.23500
C519        C  0.14836701  0.22517763  0.68210584    -0.12500
C520        C  0.17142097  0.23085629  0.69335337     0.04900
C521        C  0.10359462  0.21102963  0.68610412     0.27300
C522        C  0.10051702  0.18525904  0.68422956    -0.13200
C523        C  0.07684969  0.17519953  0.67993556     0.05400
C524        C  0.05611161  0.19096233  0.67542936    -0.09100
C525        C  0.05978307  0.21690959  0.67520327     0.06200
C526        C  0.08323249  0.22686665  0.68131318    -0.13500
Br527      Br  0.14576566  0.22286196  0.64609449    -0.05600
Br528      Br  0.15166710  0.22655566  0.77097607     0.00100
Br529      Br  0.07316406  0.13967904  0.68218962     0.00500
Br530      Br  0.08754282  0.26217664  0.68365128    -0.03900
Br531      Br  0.20033370  0.23506716  0.67201346     0.00600
Br532      Br  0.09915888  0.21659887  0.74370684    -0.03200
Br533      Br  0.12902051  0.16372257  0.68812619    -0.04100
Br534      Br  0.03319888  0.23889763  0.66537582    -0.00100
C535        C  0.99507692  0.94235565  0.47136761     0.01300
C536        C  0.99731890  0.94394328  0.44462232     0.04200
C537        C  0.99526493  0.92256406  0.42953079    -0.11900
C538        C  0.99649888  0.89881768  0.44032721     0.23500
C539        C  0.99459768  0.89682738  0.46670980    -0.12500
C540        C  0.99128236  0.91829313  0.48157994     0.04900
C541        C  0.99995725  0.87663713  0.42348797     0.27300
C542        C  0.98183335  0.85794399  0.42207308    -0.13200
C543        C  0.98534822  0.83777632  0.40549721     0.05400
C544        C  0.00276531  0.83940027  0.38521143    -0.09100
C545        C  0.01985569  0.85942838  0.38564478     0.06200
C546        C  0.02032079  0.87565984  0.40644271    -0.13500
Br547      Br  0.99650469  0.86501133  0.48311512    -0.05600
Br548      Br  0.00586995  0.97346875  0.42672219     0.00100
Br549      Br  0.96764099  0.80755646  0.41280364     0.00500
Br550      Br  0.04814567  0.89781861  0.41042814    -0.03900
Br551      Br  0.97730314  0.91422487  0.51482570     0.00600
Br552      Br  0.99030179  0.92573776  0.39362334    -0.03200
Br553      Br  0.95049852  0.86124258  0.43994229    -0.04100
Br554      Br  0.03989239  0.86844776  0.35676421    -0.00100
C555        C  0.87281394  0.00381635  0.36880259     0.01300
C556        C  0.89618681  0.99252143  0.36435463     0.04200
C557        C  0.91422589  0.99234225  0.38330010    -0.11900
C558        C  0.90920164  0.00382005  0.40665987     0.23500
C559        C  0.88651386  0.01663076  0.41045582    -0.12500
C560        C  0.86827254  0.01651440  0.39164116     0.04900
C561        C  0.92660600  0.99987812  0.42790236     0.27300
C562        C  0.92340438  0.97918841  0.44345760    -0.13200
C563        C  0.94125154  0.97308007  0.46170711     0.05400
C564        C  0.96201628  0.98886934  0.46609220    -0.09100
C565        C  0.96493384  0.00970890  0.44985919     0.06200
C566        C  0.94739066  0.01507666  0.43105108    -0.13500
Br567      Br  0.88024572  0.03366820  0.44173065    -0.05600
Br568      Br  0.90359847  0.97759844  0.33209858     0.00100
Br569      Br  0.93592332  0.94241088  0.47907724     0.00500
Br570      Br  0.95198501  0.04293031  0.40879891    -0.03900
Br571      Br  0.83665792  0.03280291  0.39761241     0.00600
Br572      Br  0.94564160  0.97572642  0.37758796    -0.03200
Br573      Br  0.89388744  0.95919710  0.43948470    -0.04100
Br574      Br  0.99508047  0.02880714  0.44985343    -0.00100
C575        C  0.86539360  0.12030875  0.49961120     0.01300
C576        C  0.88564916  0.11805428  0.48229336     0.04200
C577        C  0.90096443  0.09681254  0.48248070    -0.11900
C578        C  0.90148013  0.08144551  0.50389333     0.23500
C579        C  0.88437277  0.08630366  0.52357982    -0.12500
C580        C  0.86448990  0.10304991  0.51989604     0.04900
C581        C  0.92131595  0.06191341  0.50635570     0.27300
C582        C  0.91544421  0.03660048  0.50844855    -0.13200
C583        C  0.93457213  0.01856505  0.51012020     0.05400
C584        C  0.96016584  0.02503895  0.50728364    -0.09100
C585        C  0.96559653  0.05090949  0.50512178     0.06200
C586        C  0.94642342  0.06890773  0.50629467    -0.13500
Br587      Br  0.88912395  0.07161757  0.55627061    -0.05600
Br588      Br  0.89595763  0.14525883  0.46102787     0.00100
Br589      Br  0.92504939  0.98575976  0.52057694     0.00500
Br590      Br  0.95434666  0.10386202  0.50826786    -0.03900
Br591      Br  0.83561779  0.09889642  0.54134711     0.00600
Br592      Br  0.92165330  0.08938582  0.45345583    -0.03200
Br593      Br  0.88101236  0.02642542  0.50964710    -0.04100
Br594      Br  0.99822150  0.06383409  0.49881071    -0.00100
C595        C  0.00114834  0.02459219  0.54563509     0.01300
C596        C  0.98221235  0.03215540  0.56325389     0.04200
C597        C  0.98572112  0.05274191  0.57911705    -0.11900
C598        C  0.00798865  0.06609517  0.57821176     0.23500
C599        C  0.02664300  0.05943276  0.56072983    -0.12500
C600        C  0.02342842  0.03880458  0.54474362     0.04900
C601        C  0.01081841  0.08784223  0.59516600     0.27300
C602        C  0.00601178  0.11196627  0.58621469    -0.13200
C603        C  0.00482244  0.13209384  0.60301486     0.05400
C604        C  0.00817426  0.12817158  0.62886470    -0.09100
C605        C  0.01331470  0.10418292  0.63787026     0.06200
C606        C  0.01502151  0.08413342  0.62101323    -0.13500
Br607      Br  0.05564393  0.08021978  0.55719682    -0.05600
Br608      Br  0.95078854  0.01589203  0.56721194     0.00100
Br609      Br  0.99777411  0.16499806  0.59085155     0.00500
Br610      Br  0.02250731  0.05147185  0.63341122    -0.03900
Br611      Br  0.04792728  0.03356917  0.51844649     0.00600
Br612      Br  0.95926502  0.06393197  0.60169718    -0.03200
Br613      Br  0.00048056  0.11746891  0.55104854    -0.04100
Br614      Br  0.01728689  0.09873429  0.67344667    -0.00100
C615        C  0.11451926  0.99697153  0.65387410     0.01300
C616        C  0.11125198  0.01209701  0.63240575     0.04200
C617        C  0.09016428  0.00953288  0.61736151    -0.11900
C618        C  0.07532174  0.98825267  0.61930572     0.23500
C619        C  0.07896122  0.97218920  0.63980745    -0.12500
C620        C  0.09664228  0.97807610  0.65835423     0.04900
C621        C  0.05962779  0.98145502  0.59729274     0.27300
C622        C  0.03347615  0.98158174  0.59842958    -0.13200
C623        C  0.01968161  0.97864575  0.57621861     0.05400
C624        C  0.03143129  0.97965410  0.55206453    -0.09100
C625        C  0.05803793  0.97861546  0.55145314     0.06200
C626        C  0.07153734  0.97733121  0.57396864    -0.13500
Br627      Br  0.06190006  0.94092264  0.64127390    -0.05600
Br628      Br  0.13721800  0.03274853  0.61934672     0.00100
Br629      Br  0.98542612  0.96880801  0.57963276     0.00500
Br630      Br  0.10708981  0.97088133  0.57323082    -0.03900
Br631      Br  0.09496814  0.96080304  0.69005892     0.00600
Br632      Br  0.08319295  0.03397169  0.59200564    -0.03200
Br633      Br  0.01628715  0.98575546  0.63020446    -0.04100
Br634      Br  0.07803566  0.98109725  0.52142332    -0.00100
C635        C  0.03549728  0.94280466  0.50802575     0.01300
C636        C  0.03886138  0.92410562  0.52682776     0.04200
C637        C  0.05746950  0.90556619  0.52404236    -0.11900
C638        C  0.07331041  0.90500019  0.50287938     0.23500
C639        C  0.07079667  0.92344936  0.48448856    -0.12500
C640        C  0.05235317  0.94221390  0.48704693     0.04900
C641        C  0.09334797  0.88550400  0.50101114     0.27300
C642        C  0.11615965  0.88875877  0.51344225    -0.13200
C643        C  0.13381394  0.86926073  0.51437545     0.05400
C644        C  0.12861532  0.84608773  0.50334497    -0.09100
C645        C  0.10599122  0.84295781  0.49057633     0.06200
C646        C  0.08878370  0.86274077  0.48889714    -0.13500
Br647      Br  0.09396123  0.92370825  0.45649694    -0.05600
Br648      Br  0.01931164  0.92218334  0.55719281     0.00100
Br649      Br  0.16541764  0.87446325  0.53026030     0.00500
Br650      Br  0.05923591  0.85880692  0.46942291    -0.03900
Br651      Br  0.05409067  0.96987351  0.46423230     0.00600
Br652      Br  0.06197782  0.88053951  0.54969999    -0.03200
Br653      Br  0.12319696  0.92009799  0.52906411    -0.04100
Br654      Br  0.09809214  0.81112366  0.47625458    -0.00100
C655        C  0.67450157  0.30144014  0.44845903     0.01300
C656        C  0.67580645  0.31610307  0.42636701     0.04200
C657        C  0.67726736  0.30484595  0.40231105    -0.11900
C658        C  0.67805361  0.27881412  0.39976787     0.23500
C659        C  0.67584936  0.26414665  0.42161198    -0.12500
C660        C  0.67365071  0.27533408  0.44569313     0.04900
C661        C  0.68634501  0.26748685  0.37507887     0.27300
C662        C  0.66955982  0.25891088  0.35680298    -0.13200
C663        C  0.67833755  0.25019743  0.33291908     0.05400
C664        C  0.70397726  0.25193633  0.32620550    -0.09100
C665        C  0.72074850  0.25892822  0.34579340     0.06200
C666        C  0.71191905  0.26606854  0.36982660    -0.13500
Br667      Br  0.67724582  0.22857063  0.41848458    -0.05600
Br668      Br  0.67743508  0.35177338  0.42870735     0.00100
Br669      Br  0.65507510  0.23495946  0.31048188     0.00500
Br670      Br  0.73506308  0.27413456  0.39629694    -0.03900
Br671      Br  0.66871997  0.25464479  0.47474252     0.00600
Br672      Br  0.67966760  0.32509205  0.37251589    -0.03200
Br673      Br  0.63449472  0.25937158  0.36468286    -0.04100
Br674      Br  0.75657525  0.25822725  0.34176025    -0.00100
C675        C  0.30350656  0.46054212  0.69526279     0.01300
C676        C  0.28213762  0.45438080  0.68139846     0.04200
C677        C  0.27164833  0.43039646  0.68323349    -0.11900
C678        C  0.28243733  0.41230720  0.69895869     0.23500
C679        C  0.30367132  0.41859249  0.71292227    -0.12500
C680        C  0.31410459  0.44249264  0.71109077     0.04900
C681        C  0.27164199  0.38676450  0.70143535     0.27300
C682        C  0.25279828  0.38205196  0.71944090    -0.13200
C683        C  0.24672671  0.35740614  0.72582127     0.05400
C684        C  0.25937798  0.33728240  0.71432034    -0.09100
C685        C  0.27426976  0.34205154  0.69294346     0.06200
C686        C  0.28127753  0.36667151  0.68714085    -0.13500
Br687      Br  0.31885868  0.39408477  0.73425448    -0.05600
Br688      Br  0.26759986  0.47876335  0.65951378     0.00100
Br689      Br  0.21961164  0.35113017  0.74867634     0.00500
Br690      Br  0.30471922  0.37286487  0.66029831    -0.03900
Br691      Br  0.34343536  0.45045786  0.72990653     0.00600
Br692      Br  0.24286517  0.42201311  0.66379357    -0.03200
Br693      Br  0.23551384  0.40938091  0.73544148    -0.04100
Br694      Br  0.28335004  0.31504539  0.67086483    -0.00100
C695        C  0.46397759  0.67833186  0.31822561     0.01300
C696        C  0.44652627  0.69688170  0.32498128     0.04200
C697        C  0.42340462  0.69859095  0.31264101    -0.11900
C698        C  0.41714520  0.68151464  0.29354533     0.23500
C699        C  0.43453588  0.66277871  0.28693911    -0.12500
C700        C  0.45767676  0.66104032  0.29937927     0.04900
C701        C  0.39319107  0.68468548  0.27934562     0.27300
C702        C  0.37162317  0.67078304  0.28522223    -0.13200
C703        C  0.34836531  0.67690766  0.27421225     0.05400
C704        C  0.34628081  0.69791929  0.25856593    -0.09100
C705        C  0.36849133  0.70902724  0.24990203     0.06200
C706        C  0.39171286  0.70262371  0.26025249    -0.13500
Br707      Br  0.42691352  0.64004770  0.26017868    -0.05600
Br708      Br  0.45416908  0.71960398  0.35179161     0.00100
Br709      Br  0.31909649  0.65787364  0.28199690     0.00500
Br710      Br  0.42162285  0.71890061  0.24879682    -0.03900
Br711      Br  0.48085320  0.63490650  0.29065613     0.00600
Br712      Br  0.40045280  0.72482427  0.32163359    -0.03200
Br713      Br  0.37360434  0.64463058  0.30966343    -0.04100
Br714      Br  0.36731528  0.73181697  0.22245581    -0.00100
C715        C  0.65495004  0.43543282  0.28515201     0.01300
C716        C  0.67195935  0.42051959  0.29843852     0.04200
C717        C  0.67801011  0.39643312  0.28998148    -0.11900
C718        C  0.66788929  0.38712893  0.26751499     0.23500
C719        C  0.65058912  0.40190082  0.25432686    -0.12500
C720        C  0.64416369  0.42594626  0.26311775     0.04900
C721        C  0.67683747  0.36263540  0.25722453     0.27300
C722        C  0.69484865  0.36192038  0.23767642    -0.13200
C723        C  0.70612561  0.33922754  0.23042592     0.05400
C724        C  0.69998778  0.31699995  0.24298919    -0.09100
C725        C  0.68056616  0.31750196  0.26100946     0.06200
C726        C  0.66893537  0.34010041  0.26804233    -0.13500
Br727      Br  0.63511374  0.38874962  0.22470303    -0.05600
Br728      Br  0.68734211  0.43329877  0.32833842     0.00100
Br729      Br  0.73117844  0.33898947  0.20425812     0.00500
Br730      Br  0.64254790  0.34028130  0.29293716    -0.03900
Br731      Br  0.62049325  0.44592138  0.24519009     0.00600
Br732      Br  0.69969156  0.37598915  0.30985771    -0.03200
Br733      Br  0.70506769  0.39232467  0.22166986    -0.04100
Br734      Br  0.66927913  0.28699775  0.27521851    -0.00100
C735        C  0.31493291  0.68741199  0.45881609     0.01300
C736        C  0.29970062  0.66867735  0.44902328     0.04200
C737        C  0.29309282  0.66897337  0.42351578    -0.11900
C738        C  0.29966739  0.68926089  0.40817812     0.23500
C739        C  0.31354480  0.70894918  0.41864001    -0.12500
C740        C  0.32150338  0.70777070  0.44368775     0.04900
C741        C  0.29297883  0.68954555  0.38098022     0.27300
C742        C  0.31192204  0.68917512  0.36259279    -0.13200
C743        C  0.30661973  0.69659822  0.33794929     0.05400
C744        C  0.28166158  0.69787899  0.32937406    -0.09100
C745        C  0.26243382  0.69485486  0.34755659     0.06200
C746        C  0.26806758  0.69235092  0.37335146    -0.13500
Br747      Br  0.32367743  0.73690094  0.39854226    -0.05600
Br748      Br  0.28788817  0.64263725  0.47078273     0.00100
Br749      Br  0.33359693  0.71171367  0.31984215     0.00500
Br750      Br  0.24179963  0.69511737  0.39838307    -0.03900
Br751      Br  0.34317938  0.73318734  0.45659686     0.00600
Br752      Br  0.27743001  0.64031318  0.40908365    -0.03200
Br753      Br  0.34564364  0.68046184  0.37162540    -0.04100
Br754      Br  0.22831875  0.69864777  0.33837530    -0.00100
C755        C  0.45991664  0.29278099  0.68381838     0.01300
C756        C  0.44738912  0.28785769  0.70685913     0.04200
C757        C  0.42280373  0.27849971  0.70695773    -0.11900
C758        C  0.40974569  0.27511842  0.68434998     0.23500
C759        C  0.42273889  0.27813188  0.66142480    -0.12500
C760        C  0.44792012  0.28583252  0.66118715     0.04900
C761        C  0.38176178  0.27248259  0.68531714     0.27300
C762        C  0.36982475  0.24927000  0.68387892    -0.13200
C763        C  0.34398481  0.24705008  0.68979103     0.05400
C764        C  0.33013118  0.26776283  0.69897367    -0.09100
C765        C  0.34245713  0.29107686  0.69972078     0.06200
C766        C  0.36729449  0.29352674  0.69125314    -0.13500
Br767      Br  0.40535134  0.27361826  0.63031877    -0.05600
Br768      Br  0.46243875  0.29593941  0.73855211     0.00100
Br769      Br  0.32875100  0.21483613  0.68855031     0.00500
Br770      Br  0.38246442  0.32589055  0.68952157    -0.03900
Br771      Br  0.46597383  0.28669575  0.62958626     0.00600
Br772      Br  0.40586450  0.27193249  0.73824792    -0.03200
Br773      Br  0.38940416  0.22031471  0.67552205    -0.04100
Br774      Br  0.32764796  0.31953995  0.71626021    -0.00100
C775        C  0.46729802  0.54148911  0.51371319     0.01300
C776        C  0.47346321  0.56692194  0.51814379     0.04200
C777        C  0.45493649  0.58552288  0.51818199    -0.11900
C778        C  0.43045554  0.57981681  0.51189813     0.23500
C779        C  0.42397596  0.55526351  0.50676522    -0.12500
C780        C  0.44198654  0.53618464  0.50815687     0.04900
C781        C  0.41177238  0.60007832  0.50998850     0.27300
C782        C  0.39685447  0.60645156  0.53091371    -0.13200
C783        C  0.37944019  0.62593887  0.52927316     0.05400
C784        C  0.37868979  0.64095152  0.50739745    -0.09100
C785        C  0.39477626  0.63512411  0.48684759     0.06200
C786        C  0.41015778  0.61396800  0.48773275    -0.13500
Br787      Br  0.39035329  0.54826718  0.49652668    -0.05600
Br788      Br  0.50647585  0.57841296  0.52464572     0.00100
Br789      Br  0.35585489  0.63037987  0.55668099     0.00500
Br790      Br  0.42900736  0.60372636  0.45838167    -0.03900
Br791      Br  0.43170116  0.50361641  0.49834397     0.00600
Br792      Br  0.46265731  0.61943219  0.52718789    -0.03200
Br793      Br  0.40087351  0.58868747  0.56204684    -0.04100
Br794      Br  0.39758199  0.65678618  0.45803519    -0.00100
C795        C  0.46614732  0.50196632  0.55386661     0.01300
C796        C  0.44757162  0.48321876  0.55711009     0.04200
C797        C  0.42998367  0.48415565  0.57717867    -0.11900
C798        C  0.42927525  0.50423597  0.59390658     0.23500
C799        C  0.44699619  0.52299668  0.59118866    -0.12500
C800        C  0.46543103  0.52177684  0.57189605     0.04900
C801        C  0.40914402  0.50603639  0.61370757     0.27300
C802        C  0.38528286  0.51504713  0.60740271    -0.13200
C803        C  0.36606192  0.51626434  0.62573967     0.05400
C804        C  0.37027036  0.50781742  0.65039688    -0.09100
C805        C  0.39410746  0.49890959  0.65677897     0.06200
C806        C  0.41353567  0.49828809  0.63862186    -0.13500
Br807      Br  0.44577483  0.55052169  0.61456645    -0.05600
Br808      Br  0.44306849  0.45668986  0.53372760     0.00100
Br809      Br  0.33382386  0.52938406  0.61711934     0.00500
Br810      Br  0.44617256  0.48673233  0.64784078    -0.03900
Br811      Br  0.49027944  0.54699208  0.57299486     0.00600
Br812      Br  0.40595024  0.45792623  0.58192661    -0.03200
Br813      Br  0.37884567  0.52519013  0.57335703    -0.04100
Br814      Br  0.39996661  0.48743371  0.69051935    -0.00100
C815        C  0.50832718  0.54085634  0.47455707     0.01300
C816        C  0.49104034  0.54725230  0.45539310     0.04200
C817        C  0.49604189  0.56659306  0.43833185    -0.11900
C818        C  0.51744113  0.58104253  0.44066504     0.23500
C819        C  0.53489141  0.57509724  0.45914182    -0.12500
C820        C  0.53065454  0.55502561  0.47570489     0.04900
C821        C  0.52061692  0.60277057  0.42365602     0.27300
C822        C  0.53346595  0.59997127  0.40059348    -0.13200
C823        C  0.53074956  0.61782283  0.38154666     0.05400
C824        C  0.51563768  0.63895933  0.38571734    -0.09100
C825        C  0.50460384  0.64287764  0.40959859     0.06200
C826        C  0.50709967  0.62480287  0.42851556    -0.13500
Br827      Br  0.56448025  0.59494700  0.46177117    -0.05600
Br828      Br  0.45983730  0.53120514  0.45103838     0.00100
Br829      Br  0.54682095  0.61272631  0.34926922     0.00500
Br830      Br  0.49185638  0.62988303  0.46110474    -0.03900
Br831      Br  0.55453682  0.54959946  0.50197871     0.00600
Br832      Br  0.47370444  0.57338321  0.41073465    -0.03200
Br833      Br  0.55458011  0.57151030  0.39515431    -0.04100
Br834      Br  0.48622964  0.67302994  0.41638686    -0.00100
C835        C  0.53367996  0.49428992  0.46461320     0.01300
C836        C  0.51989419  0.48694051  0.44318259     0.04200
C837        C  0.53218195  0.48269303  0.41982379    -0.11900
C838        C  0.55684987  0.49079568  0.41607975     0.23500
C839        C  0.56909352  0.50197388  0.43628957    -0.12500
C840        C  0.55922933  0.50001752  0.46076960     0.04900
C841        C  0.57163346  0.48468979  0.39274264     0.27300
C842        C  0.59275568  0.46893504  0.39451448    -0.13200
C843        C  0.60976972  0.46674746  0.37427092     0.05400
C844        C  0.60523512  0.47921088  0.35157610    -0.09100
C845        C  0.58266906  0.49235728  0.34869677     0.06200
C846        C  0.56629103  0.49581298  0.36937187    -0.13500
Br847      Br  0.60030579  0.51883796  0.43061228    -0.05600
Br848      Br  0.48545743  0.47714507  0.44678132     0.00100
Br849      Br  0.63974797  0.44733990  0.37800756     0.00500
Br850      Br  0.53725011  0.51657598  0.36554588    -0.03900
Br851      Br  0.58339303  0.49911767  0.48698257     0.00600
Br852      Br  0.51619825  0.46322748  0.39426760    -0.03200
Br853      Br  0.59894392  0.45071958  0.42502365    -0.04100
Br854      Br  0.57374205  0.50467060  0.31601208    -0.00100
C855        C  0.54226098  0.45926353  0.50906293     0.01300
C856        C  0.54602070  0.44036728  0.49022642     0.04200
C857        C  0.56621863  0.42352723  0.49156683    -0.11900
C858        C  0.58104141  0.42244062  0.51301380     0.23500
C859        C  0.57769580  0.44057722  0.53177330    -0.12500
C860        C  0.56015680  0.45994956  0.52858637     0.04900
C861        C  0.60061118  0.40258332  0.51467741     0.27300
C862        C  0.59354598  0.37750591  0.51742648    -0.13200
C863        C  0.61129004  0.35828525  0.51433358     0.05400
C864        C  0.63622787  0.36385507  0.50822392    -0.09100
C865        C  0.64340655  0.38887868  0.50596220     0.06200
C866        C  0.62575623  0.40813961  0.50927853    -0.13500
Br867      Br  0.59749797  0.43918481  0.56172942    -0.05600
Br868      Br  0.52429945  0.43394887  0.46276108     0.00100
Br869      Br  0.60131763  0.32419295  0.51774219     0.00500
Br870      Br  0.63571578  0.44210016  0.50435780    -0.03900
Br871      Br  0.56515224  0.48982007  0.54750147     0.00600
Br872      Br  0.57409051  0.40131574  0.46370939    -0.03200
Br873      Br  0.55903725  0.36935672  0.52329899    -0.04100
Br874      Br  0.67710957  0.39677413  0.49626761    -0.00100
C875        C  0.50388998  0.46020922  0.55050021     0.01300
C876        C  0.50992297  0.46533476  0.57607180     0.04200
C877        C  0.50944707  0.44654752  0.59447957    -0.11900
C878        C  0.50208813  0.42249030  0.58828385     0.23500
C879        C  0.49596457  0.41690687  0.56338065    -0.12500
C880        C  0.49760141  0.43521989  0.54451094     0.04900
C881        C  0.50185288  0.40281207  0.60791787     0.27300
C882        C  0.52188488  0.38599719  0.60941980    -0.13200
C883        C  0.52171644  0.36714328  0.62763533     0.05400
C884        C  0.50257846  0.36634143  0.64617937    -0.09100
C885        C  0.48305145  0.38404435  0.64531387     0.06200
C886        C  0.48217083  0.40144115  0.62559735    -0.13500
Br887      Br  0.48450603  0.38391962  0.55553137    -0.05600
Br888      Br  0.52011109  0.49727092  0.58743715     0.00100
Br889      Br  0.54705435  0.34166830  0.62565033     0.00500
Br890      Br  0.45386266  0.42326640  0.62247665    -0.03900
Br891      Br  0.48905190  0.42511528  0.51110918     0.00600
Br892      Br  0.51947309  0.45333707  0.62865219    -0.03200
Br893      Br  0.54992971  0.38925746  0.58675438    -0.04100
Br894      Br  0.45817826  0.38560113  0.67178864    -0.00100
C895        C  0.80562153  0.30561336  0.03616697     0.01300
C896        C  0.82606587  0.29160375  0.04495853     0.04200
C897        C  0.82446885  0.27875359  0.06803768    -0.11900
C898        C  0.80199864  0.27869911  0.08211674     0.23500
C899        C  0.78125849  0.29205248  0.07286982    -0.12500
C900        C  0.78313994  0.30559300  0.05019036     0.04900
C901        C  0.80065481  0.26677207  0.10767336     0.27300
C902        C  0.79994561  0.24079982  0.11065655    -0.13200
C903        C  0.79722185  0.23013249  0.13490171     0.05400
C904        C  0.79249787  0.24526792  0.15640221    -0.09100
C905        C  0.79405895  0.27151425  0.15307517     0.06200
C906        C  0.79942206  0.28183103  0.12924267    -0.13500
Br907      Br  0.75061276  0.29320217  0.09225932    -0.05600
Br908      Br  0.85643825  0.28990719  0.02520070     0.00100
Br909      Br  0.80168935  0.19479449  0.13819790     0.00500
Br910      Br  0.80486570  0.31713536  0.12578228    -0.03900
Br911      Br  0.75539449  0.32555535  0.03929221     0.00600
Br912      Br  0.85376085  0.26286111  0.08126979    -0.03200
Br913      Br  0.80205142  0.21975593  0.08132025    -0.04100
Br914      Br  0.78722497  0.29486506  0.17976308    -0.00100
C915        C  0.03813144  0.33426450  0.79726194     0.01300
C916        C  0.05754169  0.34975190  0.78881573     0.04200
C917        C  0.08171560  0.34012818  0.78506473    -0.11900
C918        C  0.08616901  0.31440716  0.78697802     0.23500
C919        C  0.06624438  0.29858804  0.79344404    -0.12500
C920        C  0.04262064  0.30861430  0.79967402     0.04900
C921        C  0.11158828  0.30416539  0.78137355     0.27300
C922        C  0.12088506  0.30416070  0.75655214    -0.13200
C923        C  0.14560239  0.29666785  0.75130647     0.05400
C924        C  0.16129705  0.28789134  0.77090312    -0.09100
C925        C  0.15063132  0.28523388  0.79531730     0.06200
C926        C  0.12653992  0.29466382  0.80071951    -0.13500
Br927      Br  0.07113152  0.26316608  0.79323053    -0.05600
Br928      Br  0.05070590  0.38382088  0.78051730     0.00100
Br929      Br  0.15632703  0.29688984  0.71637783     0.00500
Br930      Br  0.11417440  0.29533223  0.83496469    -0.03900
Br931      Br  0.01666893  0.28736236  0.81237484     0.00600
Br932      Br  0.10886430  0.36236043  0.77774907    -0.03200
Br933      Br  0.09934880  0.31443450  0.72955802    -0.04100
Br934      Br  0.16704660  0.26659789  0.82118555    -0.00100
C935        C  0.79023968  0.32366464  0.25532884     0.01300
C936        C  0.81183035  0.32867853  0.24091624     0.04200
C937        C  0.81743470  0.35326071  0.23367549    -0.11900
C938        C  0.80100701  0.37289420  0.24009871     0.23500
C939        C  0.78056867  0.36810818  0.25619905    -0.12500
C940        C  0.77554250  0.34371077  0.26416052     0.04900
C941        C  0.80356714  0.39790981  0.22814719     0.27300
C942        C  0.81369798  0.41809451  0.24140352    -0.13200
C943        C  0.81464381  0.44187259  0.23029513     0.05400
C944        C  0.80487382  0.44583606  0.20611989    -0.09100
C945        C  0.79425942  0.42575658  0.19316409     0.06200
C946        C  0.79430508  0.40185113  0.20375898    -0.13500
Br947      Br  0.75839594  0.39482566  0.26590918    -0.05600
Br948      Br  0.83349362  0.30170508  0.23102955     0.00100
Br949      Br  0.83024563  0.46882930  0.24771601     0.00500
Br950      Br  0.78267566  0.37425749  0.18422337    -0.03900
Br951      Br  0.74730642  0.33751701  0.28575963     0.00600
Br952      Br  0.84701339  0.36005493  0.21410695    -0.03200
Br953      Br  0.82712227  0.41286844  0.27439404    -0.04100
Br954      Br  0.77926921  0.43110939  0.16084975    -0.00100
C955        C  0.05111537  0.65669416  0.22737453     0.01300
C956        C  0.05913868  0.68151576  0.22546865     0.04200
C957        C  0.08227550  0.68856248  0.23542498    -0.11900
C958        C  0.09872709  0.67061977  0.24535587     0.23500
C959        C  0.09065600  0.64590020  0.24750291    -0.12500
C960        C  0.06659794  0.63924826  0.23965747     0.04900
C961        C  0.12529618  0.67736148  0.25037230     0.27300
C962        C  0.14092308  0.68362524  0.23007374    -0.13200
C963        C  0.16445264  0.69416875  0.23421725     0.05400
C964        C  0.17504711  0.69463333  0.25879382    -0.09100
C965        C  0.15978909  0.68568940  0.27898499     0.06200
C966        C  0.13480117  0.67846883  0.27489434    -0.13500
Br967      Br  0.11326185  0.62060867  0.25919664    -0.05600
Br968      Br  0.04010153  0.70553154  0.20673781     0.00100
Br969      Br  0.17886106  0.71060759  0.20550382     0.00500
Br970      Br  0.11326788  0.67030659  0.30303350    -0.03900
Br971      Br  0.05498943  0.60598592  0.24583768     0.00600
Br972      Br  0.09222009  0.72275957  0.23394492    -0.03200
Br973      Br  0.12965244  0.67779856  0.19608105    -0.04100
Br974      Br  0.17200375  0.68250283  0.31266376    -0.00100
C975        C  0.19459018  0.45203074  0.82698795     0.01300
C976        C  0.18396149  0.43383901  0.81141255     0.04200
C977        C  0.19455135  0.40976472  0.80956315    -0.11900
C978        C  0.21613312  0.40333858  0.82321045     0.23500
C979        C  0.22627873  0.42136734  0.83946262    -0.12500
C980        C  0.21574008  0.44554372  0.84112808     0.04900
C981        C  0.22809250  0.37791479  0.82001829     0.27300
C982        C  0.21698363  0.35650941  0.83044102    -0.13200
C983        C  0.22608356  0.33251434  0.82405316     0.05400
C984        C  0.24623553  0.32931500  0.80715257    -0.09100
C985        C  0.25955872  0.35073624  0.79986032     0.06200
C986        C  0.25038752  0.37480500  0.80587451    -0.13500
Br987      Br  0.25372943  0.41244772  0.86067374    -0.05600
Br988      Br  0.15435446  0.44192442  0.79288549     0.00100
Br989      Br  0.21260065  0.30384344  0.84004163     0.00500
Br990      Br  0.26804272  0.40354192  0.79390283    -0.03900
Br991      Br  0.22973829  0.46974939  0.86347242     0.00600
Br992      Br  0.17864170  0.38531230  0.78892995    -0.03200
Br993      Br  0.18924079  0.36008925  0.85349461    -0.04100
Br994      Br  0.29071020  0.34726318  0.78194920    -0.00100
C995        C  0.23981927  0.69569893  0.17113883     0.01300
C996        C  0.22186998  0.67684294  0.16959968     0.04200
C997        C  0.21063003  0.67134156  0.14627625    -0.11900
C998        C  0.21804246  0.68401595  0.12420612     0.23500
C999        C  0.23852289  0.70011299  0.12529302    -0.12500
C1000       C  0.24977749  0.70531391  0.14850400     0.04900
C1001       C  0.20415856  0.68128345  0.10003096     0.27300
C1002       C  0.21298015  0.66525671  0.08081895    -0.13200
C1003       C  0.20107239  0.66454100  0.05725030     0.05400
C1004       C  0.18014663  0.67973937  0.05266096    -0.09100
C1005       C  0.17133734  0.69575404  0.07185577     0.06200
C1006       C  0.18319254  0.69644502  0.09541616    -0.13500
Br1007     Br  0.25041199  0.71604041  0.09503705    -0.05600
Br1008     Br  0.21417178  0.65755052  0.19907017     0.00100
Br1009     Br  0.21342127  0.64280868  0.03106422     0.00500
Br1010     Br  0.17090220  0.71842589  0.12145405    -0.03900
Br1011     Br  0.27993832  0.72419955  0.14883925     0.00600
Br1012     Br  0.18460029  0.64710303  0.14459783    -0.03200
Br1013     Br  0.24146915  0.64433586  0.08688441    -0.04100
Br1014     Br  0.14337221  0.71732552  0.06552668    -0.00100
C1015       C  0.02807147  0.50444491  0.96530453     0.01300
C1016       C  0.04383887  0.48319264  0.96342045     0.04200
C1017       C  0.06090761  0.47999508  0.94320276    -0.11900
C1018       C  0.06596904  0.49963553  0.92658739     0.23500
C1019       C  0.05280235  0.52199265  0.92977719    -0.12500
C1020       C  0.03334391  0.52417422  0.94791847     0.04900
C1021       C  0.08694025  0.49803211  0.90760518     0.27300
C1022       C  0.11188679  0.49867449  0.91576827    -0.13200
C1023       C  0.13175827  0.49898389  0.89813827     0.05400
C1024       C  0.12701981  0.49895205  0.87212004    -0.09100
C1025       C  0.10219968  0.49857016  0.86386942     0.06200
C1026       C  0.08225292  0.49829811  0.88143154    -0.13500
Br1027     Br  0.06237212  0.55018487  0.90926314    -0.05600
Br1028     Br  0.04695492  0.46093014  0.99133825     0.00100
Br1029     Br  0.16561915  0.50047551  0.90962380     0.00500
Br1030     Br  0.04858456  0.49992030  0.86929312    -0.03900
Br1031     Br  0.01512268  0.55473087  0.94630101     0.00600
Br1032     Br  0.07812206  0.44871190  0.93884600    -0.03200
Br1033     Br  0.11891364  0.50082384  0.95122203    -0.04100
Br1034     Br  0.09561309  0.49840057  0.82828935    -0.00100
C1035       C  0.02392496  0.54421229  0.00694764     0.01300
C1036       C  0.01244165  0.56767757  0.00264899     0.04200
C1037       C  0.02700156  0.58949460  0.00152289    -0.11900
C1038       C  0.05206079  0.58889704  0.00909795     0.23500
C1039       C  0.06221460  0.56630782  0.01721669    -0.12500
C1040       C  0.04967171  0.54403333  0.01271767     0.04900
C1041       C  0.06945566  0.61018689  0.00500434     0.27300
C1042       C  0.08901141  0.60757721  0.98712075    -0.13200
C1043       C  0.10912599  0.62419416  0.98686603     0.05400
C1044       C  0.10934927  0.64452852  0.00362974    -0.09100
C1045       C  0.08866034  0.64844508  0.01990875     0.06200
C1046       C  0.06896826  0.63121622  0.02082312    -0.13500
Br1047     Br  0.09438259  0.56581464  0.03316044    -0.05600
Br1048     Br  0.97789677  0.56959483  0.99286976     0.00100
Br1049     Br  0.13731052  0.61751843  0.96492595     0.00500
Br1050     Br  0.04177655  0.63624719  0.04425562    -0.03900
Br1051     Br  0.07065760  0.51546216  0.00879055     0.00600
Br1052     Br  0.01329886  0.61943668  0.98742316    -0.03200
Br1053     Br  0.08882192  0.58032083  0.96353647    -0.04100
Br1054     Br  0.08712114  0.67760962  0.04091548    -0.00100
C1055       C  0.01311024  0.60101489  0.16352496     0.01300
C1056       C  0.02764731  0.60629535  0.14183979     0.04200
C1057       C  0.02992052  0.58869971  0.12235696    -0.11900
C1058       C  0.01629255  0.56659630  0.12340484     0.23500
C1059       C  0.00330991  0.56044003  0.14567714    -0.12500
C1060       C  0.00183113  0.57752159  0.16577322     0.04900
C1061       C  0.01054015  0.55351742  0.09949060     0.27300
C1062       C  0.98912613  0.56070878  0.08650111    -0.13200
C1063       C  0.98291489  0.54922621  0.06366741     0.05400
C1064       C  0.99817253  0.53005885  0.05316352    -0.09100
C1065       C  0.02000000  0.52314635  0.06651663     0.06200
C1066       C  0.02606195  0.53484229  0.08944760    -0.13500
Br1067     Br  0.98685756  0.52888660  0.14797124    -0.05600
Br1068     Br  0.04233477  0.63854987  0.13725516     0.00100
Br1069     Br  0.95328971  0.56113883  0.04823141     0.00500
Br1070     Br  0.05516001  0.52480994  0.10778871    -0.03900
Br1071     Br  0.98398520  0.56882651  0.19612340     0.00600
Br1072     Br  0.05113710  0.59487254  0.09367589    -0.03200
Br1073     Br  0.96822247  0.58699290  0.10036911    -0.04100
Br1074     Br  0.03953257  0.49458276  0.05626603    -0.00100
C1075       C  0.95217221  0.49826843  0.04839110     0.01300
C1076       C  0.92757047  0.50669158  0.04318023     0.04200
C1077       C  0.90818646  0.50461881  0.06117375    -0.11900
C1078       C  0.91272152  0.49400432  0.08471045     0.23500
C1079       C  0.93667349  0.48567287  0.09045217    -0.12500
C1080       C  0.95651493  0.48879387  0.07316216     0.04900
C1081       C  0.89260033  0.49272446  0.10411526     0.27300
C1082       C  0.89184607  0.51003686  0.12396423    -0.13200
C1083       C  0.87340360  0.50832111  0.14286226     0.05400
C1084       C  0.85419544  0.49068359  0.14083924    -0.09100
C1085       C  0.85509448  0.47326309  0.12091863     0.06200
C1086       C  0.87489965  0.47366593  0.10336836    -0.13500
Br1087     Br  0.94170713  0.46904387  0.12230525    -0.05600
Br1088     Br  0.92023143  0.52443435  0.01286839     0.00100
Br1089     Br  0.87579570  0.52887204  0.17249765     0.00500
Br1090     Br  0.87868847  0.44739031  0.07908849    -0.03900
Br1091     Br  0.98849366  0.47891481  0.08545487     0.00600
Br1092     Br  0.87512973  0.51679093  0.05396681    -0.03200
Br1093     Br  0.91642698  0.53589535  0.12543244    -0.04100
Br1094     Br  0.82899350  0.44931084  0.11668687    -0.00100
C1095       C  0.94802974  0.46502174  0.00356681     0.01300
C1096       C  0.92985309  0.46619435  0.98409881     0.04200
C1097       C  0.91150081  0.44777616  0.98160752    -0.11900
C1098       C  0.90870945  0.42937195  0.99986844     0.23500
C1099       C  0.92531087  0.42841735  0.01993685    -0.12500
C1100       C  0.94533375  0.44521281  0.02128324     0.04900
C1101       C  0.88848069  0.41069915  0.99767368     0.27300
C1102       C  0.86396039  0.41657667  0.00556469    -0.13200
C1103       C  0.84516003  0.39852933  0.00443814     0.05400
C1104       C  0.85032376  0.37510943  0.99374807    -0.09100
C1105       C  0.87448368  0.36975071  0.98449337     0.06200
C1106       C  0.89369429  0.38714159  0.98728857    -0.13500
Br1107     Br  0.92077567  0.40306588  0.04524450    -0.05600
Br1108     Br  0.92674067  0.49352139  0.96149623     0.00100
Br1109     Br  0.81225223  0.40584059  0.01742606     0.00500
Br1110     Br  0.92731600  0.37859151  0.97735759    -0.03900
Br1111     Br  0.96965741  0.43785485  0.04631812     0.00600
Br1112     Br  0.88979705  0.44730904  0.95280334    -0.03200
Br1113     Br  0.85598987  0.44956234  0.01722409    -0.04100
Br1114     Br  0.88123615  0.33857355  0.96789685    -0.00100
C1115       C  0.98588581  0.46894313  0.96196344     0.01300
C1116       C  0.97986517  0.47843214  0.93774904     0.04200
C1117       C  0.97659828  0.46235686  0.91716832    -0.11900
C1118       C  0.98162412  0.43697866  0.91956326     0.23500
C1119       C  0.98854007  0.42729898  0.94281549    -0.12500
C1120       C  0.98987746  0.44283435  0.96399880     0.04900
C1121       C  0.98276271  0.42089217  0.89699669     0.27300
C1122       C  0.96427826  0.40321159  0.89252834    -0.13200
C1123       C  0.96740817  0.38606920  0.87277397     0.05400
C1124       C  0.98727089  0.38878343  0.85516305    -0.09100
C1125       C  0.00491580  0.40769066  0.85909656     0.06200
C1126       C  0.00359362  0.42221238  0.88092306    -0.13500
Br1127     Br  0.99749380  0.39249863  0.94501929    -0.05600
Br1128     Br  0.97480039  0.51315664  0.93155854     0.00100
Br1129     Br  0.94568325  0.35782501  0.87188375     0.00500
Br1130     Br  0.03118885  0.44274387  0.88988833    -0.03900
Br1131     Br  0.99853578  0.42674761  0.99464768     0.00600
Br1132     Br  0.96511045  0.47481565  0.88524511    -0.03200
Br1133     Br  0.93498750  0.40229740  0.91380196    -0.04100
Br1134     Br  0.03005060  0.41559714  0.83433506    -0.00100
C1135       C  0.26032678  0.79155571  0.17734769     0.01300
C1136       C  0.24865176  0.78513076  0.15460939     0.04200
C1137       C  0.25653882  0.79562432  0.13155345    -0.11900
C1138       C  0.27620824  0.81276251  0.13087111     0.23500
C1139       C  0.28541139  0.82181618  0.15392298    -0.12500
C1140       C  0.27685730  0.81176374  0.17708799     0.04900
C1141       C  0.28734920  0.82047836  0.10595927     0.27300
C1142       C  0.30423011  0.80456699  0.09306493    -0.13200
C1143       C  0.31416486  0.81112334  0.06929699     0.05400
C1144       C  0.30718842  0.83360150  0.05780390    -0.09100
C1145       C  0.29018690  0.84952011  0.07056471     0.06200
C1146       C  0.28021083  0.84290877  0.09438398    -0.13500
Br1147     Br  0.31089009  0.84675570  0.15374490    -0.05600
Br1148     Br  0.22093274  0.76279036  0.15517884     0.00100
Br1149     Br  0.33837498  0.78970292  0.05297111     0.00500
Br1150     Br  0.25616352  0.86423227  0.11093208    -0.03900
Br1151     Br  0.28761401  0.82561646  0.20840416     0.00600
Br1152     Br  0.24082945  0.78617351  0.10062034    -0.03200
Br1153     Br  0.31373850  0.77343550  0.10776019    -0.04100
Br1154     Br  0.28019623  0.88030411  0.05518294    -0.00100
C1155       C  0.33771736  0.78845635  0.22333359     0.01300
C1156       C  0.35515844  0.79730069  0.24092479     0.04200
C1157       C  0.37865918  0.80614525  0.23264189    -0.11900
C1158       C  0.38442302  0.80763605  0.20672093     0.23500
C1159       C  0.36648275  0.80045823  0.18920143    -0.12500
C1160       C  0.34413185  0.78949183  0.19739130     0.04900
C1161       C  0.41003327  0.81420486  0.19760429     0.27300
C1162       C  0.41761440  0.83912782  0.19609722    -0.13200
C1163       C  0.44151173  0.84507561  0.18658514     0.05400
C1164       C  0.45758470  0.82619240  0.17732768    -0.09100
C1165       C  0.44969814  0.80131217  0.17829266     0.06200
C1166       C  0.42636156  0.79536228  0.18886707    -0.13500
Br1167     Br  0.37327172  0.80452385  0.15367063    -0.05600
Br1168     Br  0.34861496  0.79396368  0.27648394     0.00100
Br1169     Br  0.45246886  0.87904321  0.18717958     0.00500
Br1170     Br  0.41667436  0.76115782  0.19081846    -0.03900
Br1171     Br  0.32442841  0.77291915  0.17269402     0.00600
Br1172     Br  0.40382366  0.81441375  0.25672835    -0.03200
Br1173     Br  0.39484024  0.86512518  0.20627179    -0.04100
Br1174     Br  0.47017840  0.77522179  0.16376948    -0.00100
C1175       C  0.46943069  0.19126941  0.79594834     0.01300
C1176       C  0.45640254  0.19062155  0.77308164     0.04200
C1177       C  0.43216080  0.20080861  0.77160288    -0.11900
C1178       C  0.41964647  0.20957508  0.79350695     0.23500
C1179       C  0.43249186  0.20964933  0.81647213    -0.12500
C1180       C  0.45763858  0.20199683  0.81731015     0.04900
C1181       C  0.39254421  0.21662586  0.79251965     0.27300
C1182       C  0.38444951  0.24150744  0.79510740    -0.13200
C1183       C  0.35921312  0.24803754  0.79090056     0.05400
C1184       C  0.34177996  0.22976990  0.78389846    -0.09100
C1185       C  0.34989473  0.20476224  0.78274260     0.06200
C1186       C  0.37476486  0.19820430  0.78782169    -0.13500
Br1187     Br  0.41506383  0.21793705  0.84731813    -0.05600
Br1188     Br  0.47057308  0.17357194  0.74434996     0.00100
Br1189     Br  0.34933992  0.28244257  0.79241557     0.00500
Br1190     Br  0.38470553  0.16368961  0.78836255    -0.03900
Br1191     Br  0.47601758  0.20652681  0.84786047     0.00600
Br1192     Br  0.41563477  0.20159519  0.73960142    -0.03200
Br1193     Br  0.40810075  0.26683340  0.80374474    -0.04100
Br1194     Br  0.32747734  0.17900744  0.77334283    -0.00100
C1195       C  0.26877119  0.16516794  0.78816477     0.01300
C1196       C  0.27056789  0.14544023  0.77012554     0.04200
C1197       C  0.27432006  0.12066714  0.77755686    -0.11900
C1198       C  0.28104537  0.11506789  0.80227513     0.23500
C1199       C  0.28038422  0.13431592  0.82039160    -0.12500
C1200       C  0.27330816  0.15895631  0.81363225     0.04900
C1201       C  0.29320289  0.09021630  0.80701941     0.27300
C1202       C  0.28000307  0.07009024  0.81760577    -0.13200
C1203       C  0.29108382  0.04608563  0.81864522     0.05400
C1204       C  0.31488619  0.04163549  0.80776240    -0.09100
C1205       C  0.32735573  0.06157097  0.79614432     0.06200
C1206       C  0.31720403  0.08569859  0.79681524    -0.13500
Br1207     Br  0.29082322  0.12707461  0.85407590    -0.05600
Br1208     Br  0.27302407  0.15103839  0.73449253     0.00100
Br1209     Br  0.27376562  0.01937311  0.83505522     0.00500
Br1210     Br  0.33612896  0.11266140  0.78278683    -0.03900
Br1211     Br  0.27351645  0.18465788  0.83877129     0.00600
Br1212     Br  0.27268937  0.09399688  0.75310234    -0.03200
Br1213     Br  0.24649189  0.07530756  0.82983146    -0.04100
Br1214     Br  0.35752376  0.05553090  0.77709963    -0.00100
C1215       C  0.71374071  0.22866739  0.15078092     0.01300
C1216       C  0.69897452  0.24552221  0.13707396     0.04200
C1217       C  0.69042024  0.23913044  0.11288878    -0.11900
C1218       C  0.69747176  0.21634911  0.10172353     0.23500
C1219       C  0.71250095  0.19971079  0.11505462    -0.12500
C1220       C  0.71991816  0.20537111  0.13961364     0.04900
C1221       C  0.68922329  0.20952379  0.07598837     0.27300
C1222       C  0.67195427  0.19034994  0.07266210    -0.13200
C1223       C  0.66717941  0.18126015  0.04839406     0.05400
C1224       C  0.67552327  0.19455629  0.02683956    -0.09100
C1225       C  0.69167089  0.21496778  0.03050280     0.06200
C1226       C  0.70023368  0.22059212  0.05473495    -0.13500
Br1227     Br  0.72344384  0.16905399  0.09920318    -0.05600
Br1228     Br  0.68930093  0.27684788  0.15184594     0.00100
Br1229     Br  0.65173756  0.14907756  0.04562510     0.00500
Br1230     Br  0.72822374  0.24224846  0.05867793    -0.03900
Br1231     Br  0.73837125  0.18010893  0.15691320     0.00600
Br1232     Br  0.66855726  0.26127689  0.09512847    -0.03200
Br1233     Br  0.65507632  0.17627668  0.10149415    -0.04100
Br1234     Br  0.70079909  0.23722232  0.00355093    -0.00100
C1235       C  0.69459922  0.03168786  0.17046161     0.01300
C1236       C  0.71234411  0.04873627  0.16151339     0.04200
C1237       C  0.71139726  0.07380133  0.16943005    -0.11900
C1238       C  0.69231857  0.08223302  0.18596001     0.23500
C1239       C  0.67417518  0.06529054  0.19433767    -0.12500
C1240       C  0.67577122  0.04007337  0.18731410     0.04900
C1241       C  0.69344848  0.10770233  0.19736363     0.27300
C1242       C  0.70430986  0.11061295  0.22113264    -0.13200
C1243       C  0.70776801  0.13443368  0.23137020     0.05400
C1244       C  0.70119654  0.15585434  0.21771433    -0.09100
C1245       C  0.68788240  0.15288638  0.19518579     0.06200
C1246       C  0.68404862  0.12889535  0.18498924    -0.13500
Br1247     Br  0.64676128  0.07693105  0.21502236    -0.05600
Br1248     Br  0.73795964  0.03748948  0.13848531     0.00100
Br1249     Br  0.72177720  0.13749450  0.26424557     0.00500
Br1250     Br  0.66620632  0.12496329  0.15407675    -0.03900
Br1251     Br  0.65213499  0.01677470  0.20101557     0.00600
Br1252     Br  0.73606759  0.09676727  0.15738490    -0.03200
Br1253     Br  0.71543371  0.08174701  0.23931376    -0.04100
Br1254     Br  0.67403915  0.18163697  0.17906269    -0.00100
C1255       C  0.38725745  0.99437296  0.84223952     0.01300
C1256       C  0.40664595  0.01166310  0.83875474     0.04200
C1257       C  0.42500365  0.01450613  0.85717805    -0.11900
C1258       C  0.42579225  0.99827510  0.87781627     0.23500
C1259       C  0.40815618  0.97912802  0.87981089    -0.12500
C1260       C  0.38836892  0.97782575  0.86277165     0.04900
C1261       C  0.44231714  0.00326996  0.89948994     0.27300
C1262       C  0.46738307  0.99578055  0.89936881    -0.13200
C1263       C  0.48163064  0.99776943  0.92144491     0.05400
C1264       C  0.47080661  0.00675529  0.94434889    -0.09100
C1265       C  0.44507665  0.01354773  0.94398768     0.06200
C1266       C  0.43166877  0.01324048  0.92144850    -0.13500
Br1267     Br  0.41014863  0.95583404  0.90726715    -0.05600
Br1268     Br  0.40877141  0.03099879  0.80848184     0.00100
Br1269     Br  0.51491520  0.98437446  0.92053499     0.00500
Br1270     Br  0.39812331  0.02672005  0.92016429    -0.03900
Br1271     Br  0.36171063  0.95488512  0.86935263     0.00600
Br1272     Br  0.44748330  0.04206891  0.85537233    -0.03200
Br1273     Br  0.48184859  0.98214080  0.86892289    -0.04100
Br1274     Br  0.42614237  0.02297426  0.97317240    -0.00100
C1275       C  0.36690440  0.88942355  0.01348065     0.01300
C1276       C  0.36145742  0.91211921  0.00150716     0.04200
C1277       C  0.37892960  0.93150002  0.00166539    -0.11900
C1278       C  0.40172795  0.92844580  0.01410434     0.23500
C1279       C  0.40592398  0.90688859  0.02828440    -0.12500
C1280       C  0.38904639  0.88707645  0.02732279     0.04900
C1281       C  0.42296704  0.94501492  0.00776738     0.27300
C1282       C  0.43827947  0.93879056  0.98708290    -0.13200
C1283       C  0.45769696  0.95454237  0.97939208     0.05400
C1284       C  0.46263480  0.97671158  0.99283754    -0.09100
C1285       C  0.44636964  0.98325525  0.01316469     0.06200
C1286       C  0.42710036  0.96719775  0.02088906    -0.13500
Br1287     Br  0.43492128  0.90475026  0.04888535    -0.05600
Br1288     Br  0.33016908  0.91661598  0.98473691     0.00100
Br1289     Br  0.47549107  0.94519539  0.94943730     0.00500
Br1290     Br  0.40633724  0.97538006  0.04955654    -0.03900
Br1291     Br  0.39735707  0.85606408  0.04326299     0.00600
Br1292     Br  0.37211781  0.96215370  0.98442579    -0.03200
Br1293     Br  0.43244427  0.90805634  0.96925234    -0.04100
Br1294     Br  0.44778677  0.01588254  0.02833728    -0.00100
C1295       C  0.60695313  0.16165388  0.97367680     0.01300
C1296       C  0.58704045  0.16761358  0.99062383     0.04200
C1297       C  0.56940024  0.14939391  0.99750683    -0.11900
C1298       C  0.56815678  0.12708584  0.98378592     0.23500
C1299       C  0.58451152  0.12371101  0.96306447    -0.12500
C1300       C  0.60518235  0.13928443  0.95970329     0.04900
C1301       C  0.55501330  0.10459623  0.99366539     0.27300
C1302       C  0.56989289  0.08439433  0.00054998    -0.13200
C1303       C  0.56110372  0.06011842  0.99702071     0.05400
C1304       C  0.53494968  0.05568494  0.99435553    -0.09100
C1305       C  0.51937871  0.07703085  0.99658884     0.06200
C1306       C  0.52912676  0.10102306  0.99261363    -0.13500
Br1307     Br  0.58085657  0.09514633  0.94157931    -0.05600
Br1308     Br  0.58349248  0.20056347  0.00451992     0.00100
Br1309     Br  0.58743173  0.03687757  0.99137333     0.00500
Br1310     Br  0.50697134  0.12815701  0.98548680    -0.03900
Br1311     Br  0.63255067  0.12627543  0.93957252     0.00600
Br1312     Br  0.54974677  0.15370125  0.02777514    -0.03200
Br1313     Br  0.60348443  0.09057232  0.01190060    -0.04100
Br1314     Br  0.48632275  0.07413082  0.01050803    -0.00100
C1315       C  0.51859005  0.12629938  0.83962680     0.01300
C1316       C  0.51478258  0.10098958  0.83461809     0.04200
C1317       C  0.51582127  0.08362925  0.85431902    -0.11900
C1318       C  0.51925864  0.09179528  0.87923302     0.23500
C1319       C  0.52348179  0.11711326  0.88406694    -0.12500
C1320       C  0.52360654  0.13421964  0.86425735     0.04900
C1321       C  0.51563522  0.07462250  0.90073384     0.27300
C1322       C  0.49318141  0.07556782  0.91435590    -0.13200
C1323       C  0.49042667  0.06225493  0.93692125     0.05400
C1324       C  0.50946558  0.04580502  0.94531921    -0.09100
C1325       C  0.53184082  0.04454653  0.93062532     0.06200
C1326       C  0.53489620  0.05900567  0.90871982    -0.13500
Br1327     Br  0.52791356  0.12864613  0.91803661    -0.05600
Br1328     Br  0.50704840  0.09041156  0.80100045     0.00100
Br1329     Br  0.46108423  0.06969016  0.95618476     0.00500
Br1330     Br  0.56539866  0.05730814  0.88904764    -0.03900
Br1331     Br  0.53005712  0.16870615  0.87098931     0.00600
Br1332     Br  0.51247434  0.04879043  0.84725676    -0.03200
Br1333     Br  0.46602664  0.09561478  0.90166812    -0.04100
Br1334     Br  0.55864894  0.02254936  0.93894624    -0.00100
C1335       C  0.51150581  0.86984341  0.11352938     0.01300
C1336       C  0.50220255  0.86377128  0.08960413     0.04200
C1337       C  0.50297058  0.88126989  0.06988999    -0.11900
C1338       C  0.51295065  0.90511049  0.07404989     0.23500
C1339       C  0.52369778  0.91047699  0.09759042    -0.12500
C1340       C  0.52278723  0.89305299  0.11722391     0.04900
C1341       C  0.50966631  0.92559745  0.05535036     0.27300
C1342       C  0.52251440  0.92604115  0.03214674    -0.13200
C1343       C  0.51851967  0.94578019  0.01515124     0.05400
C1344       C  0.50696784  0.96828518  0.02336646    -0.09100
C1345       C  0.49639960  0.96817543  0.04809041     0.06200
C1346       C  0.49470760  0.94606886  0.06194007    -0.13500
Br1347     Br  0.53866554  0.94238087  0.10357881    -0.05600
Br1348     Br  0.48836840  0.83136657  0.08387725     0.00100
Br1349     Br  0.52753221  0.94000445  0.98066140     0.00500
Br1350     Br  0.47253963  0.94418184  0.09089567    -0.03900
Br1351     Br  0.53549493  0.90182930  0.14984567     0.00600
Br1352     Br  0.48974324  0.87248040  0.03753047    -0.03200
Br1353     Br  0.54664569  0.90049050  0.02412037    -0.04100
Br1354     Br  0.48801829  0.99731711  0.06673466    -0.00100
C1355       C  0.54467541  0.00746420  0.02470057     0.01300
C1356       C  0.56583186  0.99247225  0.01897183     0.04200
C1357       C  0.58513920  0.99019966  0.03646782    -0.11900
C1358       C  0.58091928  0.99713328  0.06169828     0.23500
C1359       C  0.55876939  0.01007466  0.06799265    -0.12500
C1360       C  0.54291253  0.01822644  0.04886764     0.04900
C1361       C  0.60049113  0.99273998  0.08089080     0.27300
C1362       C  0.61063443  0.96887050  0.08494658    -0.13200
C1363       C  0.63205050  0.96603206  0.09985040     0.05400
C1364       C  0.63941642  0.98561472  0.11614491    -0.09100
C1365       C  0.62545304  0.00813492  0.11505657     0.06200
C1366       C  0.60974677  0.01270883  0.09483693    -0.13500
Br1367     Br  0.54935943  0.01614494  0.10265511    -0.05600
Br1368     Br  0.57152629  0.97891296  0.98587804     0.00100
Br1369     Br  0.65184446  0.93649462  0.09420683     0.00500
Br1370     Br  0.60315842  0.04669427  0.08529367    -0.03900
Br1371     Br  0.52179829  0.04644236  0.05562397     0.00600
Br1372     Br  0.61818761  0.98052896  0.02504958    -0.03200
Br1373     Br  0.59576459  0.94004341  0.06972296    -0.04100
Br1374     Br  0.62366194  0.03185145  0.14233433    -0.00100
C1375       C  0.76022947  0.83421916  0.29132100     0.01300
C1376       C  0.74556472  0.85596391  0.28912004     0.04200
C1377       C  0.75586698  0.87941225  0.29441440    -0.11900
C1378       C  0.78017398  0.88128004  0.30391947     0.23500
C1379       C  0.79393843  0.85950473  0.30846842    -0.12500
C1380       C  0.78418188  0.83617250  0.30206148     0.04900
C1381       C  0.79116251  0.90605364  0.30956285     0.27300
C1382       C  0.80858959  0.91673314  0.29280557    -0.13200
C1383       C  0.81918541  0.93995504  0.29825520     0.05400
C1384       C  0.81210891  0.95297041  0.32026777    -0.09100
C1385       C  0.79489450  0.94216785  0.33717774     0.06200
C1386       C  0.78467917  0.91870034  0.33197394    -0.13500
Br1387     Br  0.82639411  0.86179276  0.32346336    -0.05600
Br1388     Br  0.71123383  0.85403405  0.27951338     0.00100
Br1389     Br  0.84431697  0.95348903  0.27611212     0.00500
Br1390     Br  0.76226901  0.90344230  0.35584643    -0.03900
Br1391     Br  0.80335761  0.80690393  0.30990243     0.00600
Br1392     Br  0.73710986  0.90921663  0.28766454    -0.03200
Br1393     Br  0.81823209  0.89929745  0.26250643    -0.04100
Br1394     Br  0.78505032  0.95970279  0.36736008    -0.00100
C1395       C  0.70404350  0.93745923  0.16550315     0.01300
C1396       C  0.72165484  0.92665230  0.14870821     0.04200
C1397       C  0.73187838  0.90282884  0.15345399    -0.11900
C1398       C  0.72457923  0.88939837  0.17505303     0.23500
C1399       C  0.70747399  0.90067473  0.19209234    -0.12500
C1400       C  0.69704492  0.92428213  0.18719919     0.04900
C1401       C  0.73569637  0.86419846  0.18076500     0.27300
C1402       C  0.72527981  0.84212410  0.17116421    -0.13200
C1403       C  0.73335365  0.81857675  0.17999778     0.05400
C1404       C  0.75187021  0.81681656  0.19852036    -0.09100
C1405       C  0.76414981  0.83874791  0.20580572     0.06200
C1406       C  0.75607188  0.86219165  0.19710872    -0.13500
Br1407     Br  0.69878177  0.88432629  0.22280983    -0.05600
Br1408     Br  0.73176897  0.94469395  0.11910081     0.00100
Br1409     Br  0.71853228  0.78864892  0.16756228     0.00500
Br1410     Br  0.77216896  0.89189784  0.20850365    -0.03900
Br1411     Br  0.67286334  0.93864919  0.21012240     0.00600
Br1412     Br  0.75647085  0.88884329  0.13078789    -0.03200
Br1413     Br  0.69903137  0.84423077  0.14693244    -0.04100
Br1414     Br  0.79140074  0.83683497  0.22895144    -0.00100
C1415       C  0.83095469  0.70539983  0.22704646     0.01300
C1416       C  0.84763423  0.71868809  0.21104289     0.04200
C1417       C  0.87288177  0.71142097  0.20866046    -0.11900
C1418       C  0.88114792  0.68856978  0.21839840     0.23500
C1419       C  0.86385410  0.67345677  0.23117680    -0.12500
C1420       C  0.83955887  0.68228406  0.23691374     0.04900
C1421       C  0.90786431  0.68029409  0.21522354     0.27300
C1422       C  0.91787864  0.67473513  0.19120940    -0.13200
C1423       C  0.94318150  0.66796219  0.18832639     0.05400
C1424       C  0.95783724  0.66225192  0.20959697    -0.09100
C1425       C  0.94744694  0.66706903  0.23381253     0.06200
C1426       C  0.92331777  0.67757591  0.23635638    -0.13500
Br1427     Br  0.87360260  0.64021712  0.24065198    -0.05600
Br1428     Br  0.83623285  0.74542131  0.18977790     0.00100
Br1429     Br  0.95800034  0.66890652  0.15505143     0.00500
Br1430     Br  0.91129762  0.68837184  0.26893498    -0.03900
Br1431     Br  0.81935858  0.66185180  0.25884853     0.00600
Br1432     Br  0.89643575  0.73353235  0.19283452    -0.03200
Br1433     Br  0.89664984  0.67490319  0.16219416    -0.04100
Br1434     Br  0.96487113  0.65778583  0.26392302    -0.00100
C1435       C  0.83082996  0.74071340  0.29687663     0.01300
C1436       C  0.84890473  0.75188642  0.28094520     0.04200
C1437       C  0.87365867  0.75432324  0.28855563    -0.11900
C1438       C  0.87966007  0.75228278  0.31406830     0.23500
C1439       C  0.86129638  0.74317672  0.33099554    -0.12500
C1440       C  0.83744585  0.73608038  0.32209390     0.04900
C1441       C  0.90391768  0.76325032  0.32248995     0.27300
C1442       C  0.92433265  0.74810679  0.32909105    -0.13200
C1443       C  0.94810966  0.75858942  0.33293319     0.05400
C1444       C  0.95208815  0.78427035  0.32930290    -0.09100
C1445       C  0.93160424  0.79937026  0.32269061     0.06200
C1446       C  0.90764916  0.78909676  0.32012314    -0.13500
Br1447     Br  0.86814593  0.74206920  0.36640774    -0.05600
Br1448     Br  0.83983151  0.77016259  0.25148531     0.00100
Br1449     Br  0.97502450  0.73763968  0.34393699     0.00500
Br1450     Br  0.87975776  0.81058466  0.31283615    -0.03900
Br1451     Br  0.81269837  0.72342084  0.34507945     0.00600
Br1452     Br  0.89923519  0.76233385  0.26403371    -0.03200
Br1453     Br  0.91987590  0.71287217  0.33244713    -0.04100
Br1454     Br  0.93655205  0.83404756  0.31545760    -0.00100
C1455       C  0.66698927  0.52840582  0.30080338     0.01300
C1456       C  0.65422457  0.55111050  0.30620750     0.04200
C1457       C  0.66698006  0.57388135  0.30605689    -0.11900
C1458       C  0.69069039  0.57575447  0.29461981     0.23500
C1459       C  0.70258657  0.55371130  0.28637570    -0.12500
C1460       C  0.69201887  0.53022694  0.29175356     0.04900
C1461       C  0.70244206  0.60087157  0.29066496     0.27300
C1462       C  0.69060739  0.61875495  0.27559899    -0.13200
C1463       C  0.69978275  0.64316337  0.27419289     0.05400
C1464       C  0.72387453  0.64914152  0.28339160    -0.09100
C1465       C  0.73575767  0.63103624  0.29867627     0.06200
C1466       C  0.72443083  0.60768476  0.30318596    -0.13500
Br1467     Br  0.73310741  0.55568816  0.26696746    -0.05600
Br1468     Br  0.61851627  0.55274734  0.31057747     0.00100
Br1469     Br  0.67633629  0.66841569  0.26391661     0.00500
Br1470     Br  0.73834483  0.58532332  0.32765725    -0.03900
Br1471     Br  0.71359416  0.50157217  0.28906642     0.00600
Br1472     Br  0.65199522  0.60245833  0.32239175    -0.03200
Br1473     Br  0.66152961  0.60991555  0.25650332    -0.04100
Br1474     Br  0.76675182  0.63788264  0.31516579    -0.00100
C1475       C  0.75843059  0.66674588  0.20134977     0.01300
C1476       C  0.78202164  0.65872286  0.19278662     0.04200
C1477       C  0.78733607  0.63319372  0.18984864    -0.11900
C1478       C  0.76850528  0.61547335  0.19399774     0.23500
C1479       C  0.74401592  0.62379141  0.19906677    -0.12500
C1480       C  0.73893015  0.64934514  0.20184494     0.04900
C1481       C  0.77430299  0.58830318  0.19230388     0.27300
C1482       C  0.76830189  0.57465401  0.17058025    -0.13200
C1483       C  0.77447516  0.54922553  0.16879914     0.05400
C1484       C  0.78826706  0.53751017  0.18791988    -0.09100
C1485       C  0.79369751  0.55105984  0.20993564     0.06200
C1486       C  0.78616346  0.57611033  0.21235555    -0.13500
Br1487     Br  0.71768168  0.60011262  0.20388424    -0.05600
Br1488     Br  0.80462419  0.68270251  0.17943925     0.00100
Br1489     Br  0.76386688  0.53024519  0.14014734     0.00500
Br1490     Br  0.79262733  0.59410041  0.24294961    -0.03900
Br1491     Br  0.70501967  0.66058532  0.20515790     0.00600
Br1492     Br  0.82057553  0.62250816  0.18077779    -0.03200
Br1493     Br  0.75284003  0.59117349  0.14263741    -0.04100
Br1494     Br  0.81307762  0.53604842  0.23611387    -0.00100
C1495       C  0.66860627  0.77136295  0.21895898     0.01300
C1496       C  0.64982266  0.75342851  0.21618532     0.04200
C1497       C  0.62527528  0.76082764  0.21067975    -0.11900
C1498       C  0.61992926  0.78584903  0.20526014     0.23500
C1499       C  0.63887298  0.80364944  0.20723572    -0.12500
C1500       C  0.66263886  0.79656259  0.21540367     0.04900
C1501       C  0.59477228  0.79357217  0.19670921     0.27300
C1502       C  0.58727744  0.78805688  0.17203950    -0.13200
C1503       C  0.56474265  0.79768443  0.16289455     0.05400
C1504       C  0.55023910  0.81412777  0.17780292    -0.09100
C1505       C  0.55743090  0.81908558  0.20278042     0.06200
C1506       C  0.57916183  0.80809608  0.21244582    -0.13500
Br1507     Br  0.63235385  0.83784532  0.19866598    -0.05600
Br1508     Br  0.65721396  0.71883249  0.22117597     0.00100
Br1509     Br  0.55346318  0.78765818  0.13011910     0.00500
Br1510     Br  0.58779983  0.81301593  0.24721774    -0.03900
Br1511     Br  0.68663053  0.82162644  0.22253952     0.00600
Br1512     Br  0.59866969  0.73702579  0.21188830    -0.03200
Br1513     Br  0.60833897  0.76795276  0.15039426    -0.04100
Br1514     Br  0.53865369  0.84224811  0.22333700    -0.00100
C1515       C  0.55430508  0.70381786  0.33277934     0.01300
C1516       C  0.56822682  0.69860510  0.31067665     0.04200
C1517       C  0.59280045  0.70747183  0.30789757    -0.11900
C1518       C  0.60405290  0.72096064  0.32744794     0.23500
C1519       C  0.58986754  0.72699370  0.34909999    -0.12500
C1520       C  0.56492951  0.71908818  0.35140323     0.04900
C1521       C  0.63072620  0.72867123  0.32481919     0.27300
C1522       C  0.65015947  0.71157053  0.32930367    -0.13200
C1523       C  0.67477605  0.71693256  0.32145421     0.05400
C1524       C  0.68021195  0.73939221  0.30914675    -0.09100
C1525       C  0.66139158  0.75781415  0.30812597     0.06200
C1526       C  0.63671873  0.75238386  0.31563976    -0.13500
Br1527     Br  0.60506621  0.74494134  0.37618011    -0.05600
Br1528     Br  0.55439358  0.67794180  0.28482546     0.00100
Br1529     Br  0.70116759  0.69352228  0.32727775     0.00500
Br1530     Br  0.61072329  0.77687063  0.31184706    -0.03900
Br1531     Br  0.54512367  0.72912600  0.38022424     0.00600
Br1532     Br  0.61155559  0.70044167  0.27753238    -0.03200
Br1533     Br  0.64271714  0.68036567  0.34514577    -0.04100
Br1534     Br  0.66898802  0.79032591  0.29555155    -0.00100
C1535       C  0.94625268  0.34679967  0.78369981     0.01300
C1536       C  0.92923914  0.33041888  0.79508112     0.04200
C1537       C  0.90575812  0.32676462  0.78447330    -0.11900
C1538       C  0.90015449  0.33719254  0.76093688     0.23500
C1539       C  0.91700204  0.35385359  0.74966309    -0.12500
C1540       C  0.93977544  0.35911912  0.76137828     0.04900
C1541       C  0.87795125  0.32835655  0.74714526     0.27300
C1542       C  0.88046026  0.30831794  0.73031841    -0.13200
C1543       C  0.85917109  0.29628187  0.72117198     0.05400
C1544       C  0.83504636  0.30452640  0.72874050    -0.09100
C1545       C  0.83301611  0.32768692  0.74142780     0.06200
C1546       C  0.85431293  0.33887611  0.75156442    -0.13500
Br1547     Br  0.90856782  0.36960344  0.71843963    -0.05600
Br1548     Br  0.93853896  0.31190376  0.82453117     0.00100
Br1549     Br  0.86393990  0.26878075  0.69833903     0.00500
Br1550     Br  0.85118568  0.36807216  0.77235720    -0.03900
Br1551     Br  0.96204426  0.38328636  0.74714706     0.00600
Br1552     Br  0.88080948  0.30880004  0.80306940    -0.03200
Br1553     Br  0.91336325  0.29702916  0.72051098    -0.04100
Br1554     Br  0.80154295  0.34512200  0.74408288    -0.00100
C1555       C  0.96296988  0.18042020  0.69260230     0.01300
C1556       C  0.95921298  0.17356525  0.71796430     0.04200
C1557       C  0.93612604  0.17844303  0.73026441    -0.11900
C1558       C  0.91632195  0.18979338  0.71718651     0.23500
C1559       C  0.92006536  0.19629603  0.69172225    -0.12500
C1560       C  0.94322325  0.19185789  0.67959972     0.04900
C1561       C  0.89184686  0.19595985  0.73004003     0.27300
C1562       C  0.87078229  0.18090573  0.72682380    -0.13200
C1563       C  0.84681231  0.18906263  0.73504063     0.05400
C1564       C  0.84346257  0.21266889  0.74672423    -0.09100
C1565       C  0.86546470  0.22585695  0.75300582     0.06200
C1566       C  0.88919568  0.21788609  0.74415809    -0.13500
Br1567     Br  0.89324040  0.21129926  0.67329197    -0.05600
Br1568     Br  0.98539399  0.15638411  0.73543733     0.00100
Br1569     Br  0.81912508  0.16688340  0.73098827     0.00500
Br1570     Br  0.91842133  0.23744083  0.75062113    -0.03900
Br1571     Br  0.94802968  0.20190029  0.64507765     0.00600
Br1572     Br  0.93152865  0.16935001  0.76499048    -0.03200
Br1573     Br  0.87507796  0.14907183  0.71073184    -0.04100
Br1574     Br  0.86426011  0.25467953  0.77424937    -0.00100
C1575       C  0.75678556  0.21039367  0.81857542     0.01300
C1576       C  0.73178441  0.20159149  0.82011658     0.04200
C1577       C  0.72122401  0.19398174  0.84322040    -0.11900
C1578       C  0.73436330  0.19665790  0.86567701     0.23500
C1579       C  0.75944020  0.20430362  0.86445077    -0.12500
C1580       C  0.77072611  0.21069120  0.84102571     0.04900
C1581       C  0.72041627  0.19403570  0.89025375     0.27300
C1582       C  0.70373545  0.21299426  0.89798172    -0.13200
C1583       C  0.68799600  0.20991096  0.91914463     0.05400
C1584       C  0.68861651  0.18771720  0.93299081    -0.09100
C1585       C  0.70548752  0.16876517  0.92559166     0.06200
C1586       C  0.72118007  0.17183599  0.90422091    -0.13500
Br1587     Br  0.77800691  0.20631975  0.89508900    -0.05600
Br1588     Br  0.70960209  0.20241983  0.79203951     0.00100
Br1589     Br  0.66546538  0.23620925  0.92924896     0.00500
Br1590     Br  0.74286900  0.14526013  0.89329990    -0.03900
Br1591     Br  0.80541533  0.21947386  0.83969116     0.00600
Br1592     Br  0.68775094  0.18085574  0.84463423    -0.03200
Br1593     Br  0.70159885  0.24288517  0.87864365    -0.04100
Br1594     Br  0.70646366  0.13826810  0.94432361    -0.00100
C1595       C  0.75134405  0.29571492  0.81962409     0.01300
C1596       C  0.73275442  0.29718952  0.83857804     0.04200
C1597       C  0.73872854  0.30513023  0.86317609    -0.11900
C1598       C  0.76310100  0.31286537  0.86875158     0.23500
C1599       C  0.78078450  0.31447744  0.84911707    -0.12500
C1600       C  0.77547439  0.30496726  0.82507836     0.04900
C1601       C  0.77107024  0.31722700  0.89534327     0.27300
C1602       C  0.76453935  0.33920096  0.90832919    -0.13200
C1603       C  0.77307003  0.34330074  0.93302674     0.05400
C1604       C  0.78895300  0.32589075  0.94469336    -0.09100
C1605       C  0.79559418  0.30400129  0.93162139     0.06200
C1606       C  0.78659095  0.29965496  0.90721870    -0.13500
Br1607     Br  0.81268197  0.32947555  0.85558554    -0.05600
Br1608     Br  0.69888581  0.28951176  0.83041710     0.00100
Br1609     Br  0.76279231  0.37276964  0.95102222     0.00500
Br1610     Br  0.79664206  0.27000652  0.88945709    -0.03900
Br1611     Br  0.80280480  0.30265086  0.80122191     0.00600
Br1612     Br  0.71362931  0.30546114  0.88936881    -0.03200
Br1613     Br  0.74515894  0.36435080  0.89168408    -0.04100
Br1614     Br  0.81841159  0.28056959  0.94643295    -0.00100
C1615       C  0.56172015  0.17770413  0.77554435     0.01300
C1616       C  0.56505232  0.17201173  0.74980708     0.04200
C1617       C  0.58851806  0.17507933  0.73798729    -0.11900
C1618       C  0.60882270  0.18428254  0.75167840     0.23500
C1619       C  0.60564574  0.18927307  0.77759645    -0.12500
C1620       C  0.58221339  0.18632515  0.78936649     0.04900
C1621       C  0.63304105  0.19018327  0.73883264     0.27300
C1622       C  0.65447105  0.17541565  0.74254221    -0.13200
C1623       C  0.67813575  0.18388404  0.73452526     0.05400
C1624       C  0.68049931  0.20746837  0.72317652    -0.09100
C1625       C  0.65844372  0.21934864  0.71488342     0.06200
C1626       C  0.63495037  0.21130868  0.72344334    -0.13500
Br1627     Br  0.63362997  0.19917374  0.79746518    -0.05600
Br1628     Br  0.53774152  0.15893492  0.73093169     0.00100
Br1629     Br  0.70672794  0.16231262  0.73746623     0.00500
Br1630     Br  0.60544539  0.22984083  0.71459748    -0.03900
Br1631     Br  0.57821189  0.19441918  0.82457317     0.00600
Br1632     Br  0.59325510  0.16549648  0.70329532    -0.03200
Br1633     Br  0.65127524  0.14378449  0.75895090    -0.04100
Br1634     Br  0.65973513  0.24572443  0.69058022    -0.00100
C1635       C  0.67480919  0.29512523  0.75026758     0.01300
C1636       C  0.65381748  0.28248860  0.76049502     0.04200
C1637       C  0.62931717  0.28910900  0.75355606    -0.11900
C1638       C  0.62503237  0.30922185  0.73732473     0.23500
C1639       C  0.64532534  0.32463671  0.73107222    -0.12500
C1640       C  0.67002313  0.31785941  0.73773412     0.04900
C1641       C  0.59935359  0.31351241  0.72674536     0.27300
C1642       C  0.59327142  0.30360730  0.70303077    -0.13200
C1643       C  0.56844271  0.30359543  0.69464097     0.05400
C1644       C  0.54961020  0.31622145  0.70828462    -0.09100
C1645       C  0.55596881  0.32799717  0.73109698     0.06200
C1646       C  0.58044697  0.32588334  0.74071643    -0.13500
Br1647     Br  0.63896552  0.35531207  0.71380238    -0.05600
Br1648     Br  0.65769190  0.25738145  0.78586077     0.00100
Br1649     Br  0.56022322  0.28642618  0.66404633     0.00500
Br1650     Br  0.58850225  0.34084530  0.77247718    -0.03900
Br1651     Br  0.69654687  0.34111223  0.73188202     0.00600
Br1652     Br  0.60130415  0.27068544  0.76660270    -0.03200
Br1653     Br  0.61924582  0.29256841  0.68055677    -0.04100
Br1654     Br  0.53126731  0.34761693  0.74873114    -0.00100
C1655       C  0.76246025  0.29720278  0.65762336     0.01300
C1656       C  0.73756084  0.30472088  0.65257481     0.04200
C1657       C  0.73045828  0.31129948  0.62803557    -0.11900
C1658       C  0.74747318  0.30928603  0.60781199     0.23500
C1659       C  0.77254801  0.30337213  0.61279131    -0.12500
C1660       C  0.78002496  0.29737818  0.63752985     0.04900
C1661       C  0.73784592  0.31072922  0.58146337     0.27300
C1662       C  0.72429034  0.29064268  0.57169686    -0.13200
C1663       C  0.71064866  0.29324072  0.54930176     0.05400
C1664       C  0.71092435  0.31582594  0.53591967    -0.09100
C1665       C  0.72654965  0.33504277  0.54444649     0.06200
C1666       C  0.73942164  0.33276176  0.56738102    -0.13500
Br1667     Br  0.79649247  0.30321262  0.58553789    -0.05600
Br1668     Br  0.71149208  0.30310235  0.67777762     0.00100
Br1669     Br  0.69010344  0.26634245  0.53828651     0.00500
Br1670     Br  0.75780342  0.36040494  0.58041996    -0.03900
Br1671     Br  0.81435508  0.28897038  0.64369887     0.00600
Br1672     Br  0.69671740  0.32212214  0.62161304    -0.03200
Br1673     Br  0.72307964  0.26000296  0.59022868    -0.04100
Br1674     Br  0.73039480  0.36458153  0.52459547    -0.00100
C1675       C  0.75705209  0.21022559  0.65790585     0.01300
C1676       C  0.78195372  0.20351379  0.65144530     0.04200
C1677       C  0.78764930  0.19342268  0.62763873    -0.11900
C1678       C  0.76905828  0.19132697  0.60937260     0.23500
C1679       C  0.74413985  0.19696928  0.61593948    -0.12500
C1680       C  0.73815237  0.20630321  0.64014099     0.04900
C1681       C  0.77655749  0.18587018  0.58278795     0.27300
C1682       C  0.78904402  0.20419836  0.56866245    -0.13200
C1683       C  0.79994677  0.19833010  0.54515576     0.05400
C1684       C  0.79704821  0.17451401  0.53476308    -0.09100
C1685       C  0.78249391  0.15692600  0.54784522     0.06200
C1686       C  0.77330238  0.16215597  0.57225406    -0.13500
Br1687     Br  0.71833071  0.19230716  0.59154599    -0.05600
Br1688     Br  0.80940529  0.21061287  0.67346150     0.00100
Br1689     Br  0.82034145  0.22241355  0.52822918     0.00500
Br1690     Br  0.75813333  0.13629100  0.59199566    -0.03900
Br1691     Br  0.70404393  0.21372470  0.64885884     0.00600
Br1692     Br  0.82137494  0.18315791  0.61949343    -0.03200
Br1693     Br  0.79248198  0.23705208  0.58237754    -0.04100
Br1694     Br  0.77490654  0.12573710  0.53209766    -0.00100
C1695       C  0.29858871  0.77529269  0.84006087     0.01300
C1696       C  0.29645877  0.75910621  0.86096069     0.04200
C1697       C  0.30314904  0.76721589  0.88542072    -0.11900
C1698       C  0.31331780  0.79100779  0.88919831     0.23500
C1699       C  0.31876834  0.80558976  0.86794303    -0.12500
C1700       C  0.31127886  0.79794757  0.84375055     0.04900
C1701       C  0.31699655  0.80140247  0.91530895     0.27300
C1702       C  0.29937249  0.81821428  0.92578684    -0.13200
C1703       C  0.30292955  0.82875619  0.94983611     0.05400
C1704       C  0.32422716  0.82282737  0.96388332    -0.09100
C1705       C  0.34192510  0.80605844  0.95350432     0.06200
C1706       C  0.33837797  0.79548085  0.92936904    -0.13500
Br1707     Br  0.33579984  0.83667123  0.87224868    -0.05600
Br1708     Br  0.28253085  0.72660068  0.85694348     0.00100
Br1709     Br  0.27898967  0.85225133  0.96326328     0.00500
Br1710     Br  0.36322973  0.77351832  0.91509134    -0.03900
Br1711     Br  0.31847678  0.81896418  0.81563064     0.00600
Br1712     Br  0.29683567  0.74642002  0.91416453    -0.03200
Br1713     Br  0.27052773  0.82760144  0.90687405    -0.04100
Br1714     Br  0.37104859  0.79754438  0.97251624    -0.00100
C1715       C  0.20810857  0.75246417  0.84282348     0.01300
C1716       C  0.18557004  0.73943677  0.84413003     0.04200
C1717       C  0.17617976  0.73129454  0.86764872    -0.11900
C1718       C  0.18896216  0.73703729  0.88998173     0.23500
C1719       C  0.20900316  0.75373497  0.88872188    -0.12500
C1720       C  0.21781459  0.76205874  0.86518157     0.04900
C1721       C  0.18196642  0.72510263  0.91445891     0.27300
C1722       C  0.16650239  0.73750415  0.93213287    -0.13200
C1723       C  0.16014766  0.72605906  0.95519970     0.05400
C1724       C  0.16936371  0.70221739  0.96093148    -0.09100
C1725       C  0.18530386  0.69006979  0.94351511     0.06200
C1726       C  0.19146836  0.70138599  0.92035662    -0.13500
Br1727     Br  0.22530662  0.76413305  0.91900081    -0.05600
Br1728     Br  0.16706915  0.73464830  0.81373866     0.00100
Br1729     Br  0.13867586  0.74291892  0.97905219     0.00500
Br1730     Br  0.21300301  0.68441380  0.89655095    -0.03900
Br1731     Br  0.24130902  0.78840894  0.86317280     0.00600
Br1732     Br  0.14659535  0.71145120  0.86921871    -0.03200
Br1733     Br  0.15396261  0.77015253  0.92458499    -0.04100
Br1734     Br  0.19872275  0.65785008  0.95149089    -0.00100
C1735       C  0.20976790  0.83471869  0.75409892     0.01300
C1736       C  0.21857210  0.85637068  0.76648586     0.04200
C1737       C  0.21262385  0.88047443  0.75750662    -0.11900
C1738       C  0.19768299  0.88373643  0.73609522     0.23500
C1739       C  0.18704518  0.86258216  0.72513142    -0.12500
C1740       C  0.19243942  0.83848713  0.73435159     0.04900
C1741       C  0.19160053  0.90940946  0.72632036     0.27300
C1742       C  0.17353464  0.92434922  0.73874493    -0.13200
C1743       C  0.16777412  0.94837695  0.72978233     0.05400
C1744       C  0.17937226  0.95764593  0.70780352    -0.09100
C1745       C  0.19728299  0.94282044  0.69526713     0.06200
C1746       C  0.20326533  0.91887064  0.70431680    -0.13500
Br1747     Br  0.16447689  0.86684967  0.69744044    -0.05600
Br1748     Br  0.23739719  0.85383607  0.79703278     0.00100
Br1749     Br  0.14347108  0.96861619  0.74735003     0.00500
Br1750     Br  0.22629234  0.89868636  0.68530517    -0.03900
Br1751     Br  0.17413254  0.81139063  0.72043167     0.00600
Br1752     Br  0.22470899  0.90940559  0.77483711    -0.03200
Br1753     Br  0.15533822  0.91116562  0.76712068    -0.04100
Br1754     Br  0.21322243  0.95539208  0.66525058    -0.00100
C1755       C  0.32851773  0.94979328  0.78609873     0.01300
C1756       C  0.33721914  0.94374948  0.76168411     0.04200
C1757       C  0.33376560  0.91964852  0.75170502    -0.11900
C1758       C  0.32168229  0.90119833  0.76611783     0.23500
C1759       C  0.31282361  0.90742846  0.79045991    -0.12500
C1760       C  0.31597819  0.93155644  0.80024899     0.04900
C1761       C  0.31545524  0.87630720  0.75495599     0.27300
C1762       C  0.29390963  0.87387305  0.74047822    -0.13200
C1763       C  0.28541916  0.85022979  0.73320720     0.05400
C1764       C  0.29733204  0.82833035  0.74209028    -0.09100
C1765       C  0.32122004  0.83105462  0.75267057     0.06200
C1766       C  0.33014478  0.85494297  0.75925661    -0.13500
Br1767     Br  0.29625930  0.88282061  0.81057499    -0.05600
Br1768     Br  0.35374619  0.96875253  0.74194911     0.00100
Br1769     Br  0.25852140  0.84883190  0.70961663     0.00500
Br1770     Br  0.36241480  0.85863327  0.77407364    -0.03900
Br1771     Br  0.30273496  0.93985798  0.83308372     0.00600
Br1772     Br  0.34548666  0.91185583  0.71822781    -0.03200
Br1773     Br  0.27580683  0.90332482  0.73101515    -0.04100
Br1774     Br  0.34261174  0.80241191  0.75575797    -0.00100
C1775       C  0.29575106  0.74961221  0.67113291     0.01300
C1776       C  0.29349460  0.76632138  0.65080731     0.04200
C1777       C  0.30166538  0.75920644  0.62653016    -0.11900
C1778       C  0.31509400  0.73689712  0.62302956     0.23500
C1779       C  0.32068412  0.72213361  0.64393627    -0.12500
C1780       C  0.30914044  0.72709078  0.66722661     0.04900
C1781       C  0.32103221  0.72749253  0.59731995     0.27300
C1782       C  0.30793554  0.70695832  0.58780624    -0.13200
C1783       C  0.31293640  0.69812192  0.56347974     0.05400
C1784       C  0.33153278  0.70927911  0.54862111    -0.09100
C1785       C  0.34483378  0.72961582  0.55798972     0.06200
C1786       C  0.33982305  0.73853978  0.58246458    -0.13500
Br1787     Br  0.34312843  0.69416364  0.64016511    -0.05600
Br1788     Br  0.27956909  0.79903433  0.65592716     0.00100
Br1789     Br  0.29485727  0.66992439  0.55078673     0.00500
Br1790     Br  0.35985617  0.76458262  0.59636537    -0.03900
Br1791     Br  0.30830212  0.70033039  0.69122657     0.00600
Br1792     Br  0.29327297  0.77931356  0.59788415    -0.03200
Br1793     Br  0.28439355  0.68937984  0.60847564    -0.04100
Br1794     Br  0.36976234  0.74513127  0.53716086    -0.00100
C1795       C  0.17707248  0.78073004  0.55011861     0.01300
C1796       C  0.19645682  0.78972178  0.56522667     0.04200
C1797       C  0.20104184  0.77927382  0.58915426    -0.11900
C1798       C  0.18672209  0.75926111  0.59825372     0.23500
C1799       C  0.16758527  0.74993746  0.58292634    -0.12500
C1800       C  0.16259323  0.76080459  0.55920009     0.04900
C1801       C  0.19181854  0.74849897  0.62398797     0.27300
C1802       C  0.21032208  0.73014756  0.62727797    -0.13200
C1803       C  0.21757951  0.72270119  0.65178594     0.05400
C1804       C  0.20668303  0.73390573  0.67347881    -0.09100
C1805       C  0.18486088  0.74834244  0.66972148     0.06200
C1806       C  0.17828901  0.75660958  0.64537824    -0.13500
Br1807     Br  0.14811689  0.72232886  0.59461004    -0.05600
Br1808     Br  0.21637670  0.81694624  0.55326837     0.00100
Br1809     Br  0.24015754  0.69519202  0.65540648     0.05300
Br1810     Br  0.15097802  0.77953129  0.64131102    -0.03900
Br1811     Br  0.13561926  0.74869058  0.53915198     0.00600
Br1812     Br  0.22648630  0.79298973  0.61004945    -0.03200
Br1813     Br  0.22538463  0.71531911  0.59783524    -0.04100
Br1814     Br  0.16164495  0.75338395  0.69710940    -0.00100
C1815       C  0.30006843  0.67236066  0.77093515     0.01300
C1816       C  0.28923482  0.65146730  0.78296956     0.04200
C1817       C  0.29504425  0.62706404  0.77460045    -0.11900
C1818       C  0.31204975  0.62301874  0.75464507     0.23500
C1819       C  0.32583322  0.64332509  0.74563202    -0.12500
C1820       C  0.32053424  0.66767253  0.75437597     0.04900
C1821       C  0.31475319  0.59772641  0.74262183     0.27300
C1822       C  0.33233477  0.58017951  0.75121337    -0.13200
C1823       C  0.33538698  0.55705434  0.73876294     0.05400
C1824       C  0.32023538  0.55076067  0.71819568    -0.09100
C1825       C  0.30187171  0.56780707  0.71044847     0.06200
C1826       C  0.29957039  0.59128578  0.72216536    -0.13500
Br1827     Br  0.35178885  0.63757995  0.72093618    -0.05600
Br1828     Br  0.26804513  0.65560988  0.81213782     0.00100
Br1829     Br  0.36068774  0.53404736  0.74949645     0.00500
Br1830     Br  0.27647861  0.61534410  0.70927468    -0.03900
Br1831     Br  0.34331579  0.69390508  0.74594006     0.00600
Br1832     Br  0.27993796  0.59868467  0.79016492    -0.03200
Br1833     Br  0.35251572  0.58809897  0.77976621    -0.04100
Br1834     Br  0.28026775  0.55915255  0.68317681    -0.00100
C1835       C  0.18120380  0.54490361  0.81012821     0.01300
C1836       C  0.20032946  0.55956293  0.82009539     0.04200
C1837       C  0.20495835  0.58368976  0.81071591    -0.11900
C1838       C  0.19146911  0.59335958  0.79006662     0.23500
C1839       C  0.17220458  0.57858548  0.78010190    -0.12500
C1840       C  0.16693812  0.55477973  0.79027859     0.04900
C1841       C  0.19640797  0.61956468  0.78054050     0.27300
C1842       C  0.19122526  0.64004728  0.79618629    -0.13200
C1843       C  0.20160576  0.66354857  0.79091543     0.05400
C1844       C  0.21236899  0.66909584  0.76698170    -0.09100
C1845       C  0.21336703  0.64912606  0.74933188     0.06200
C1846       C  0.20745167  0.62440411  0.75674901    -0.13500
Br1847     Br  0.15153092  0.59174819  0.75387022    -0.05600
Br1848     Br  0.21940509  0.54692982  0.84784232     0.00100
Br1849     Br  0.20531042  0.68485575  0.81923277     0.00500
Br1850     Br  0.21530568  0.59707745  0.73456354    -0.03900
Br1851     Br  0.13942454  0.53590401  0.77769674     0.00600
Br1852     Br  0.22839164  0.60410626  0.82816951    -0.03200
Br1853     Br  0.16994752  0.63571775  0.82538530    -0.04100
Br1854     Br  0.22158682  0.65530034  0.71449860    -0.00100
loop_ 
_geom_bond_atom_site_label_1 
_geom_bond_atom_site_label_2 
_geom_bond_distance 
_geom_bond_site_symmetry_2 
_ccdc_geom_bond_type 
O1            C9   1.278       .  A
O1          Co21   2.039       .  S
O2           C10   1.265       .  A
O2          Co22   2.031       .  S
O3           C11   1.268       .  A
O3          Co23   1.881       .  S
O4           C12   1.264       .  A
O4          Co24   1.971       .  S
O5           C11   1.303       .  A
O5          Co22   2.125       .  S
O6           C12   1.283       .  A
O6          Co21   2.070       .  S
O7           C10   1.261       .  A
O7          Co24   1.988       .  S
O8            C9   1.282       .  A
O8          Co23   2.025       .  S
C9         C1844   1.540       .  S
C10        C1735   1.533       .  S
C11        C1715   1.490       .  S
C12        C1804   1.529       .  S
O13          C26   1.253       .  A
O13         Co21   1.966       .  S
O14          C27   1.263       .  A
O14         Co22   1.891       .  S
O15          C28   1.268       .  A
O15         Co23   2.036       .  S
O16          C29   1.273       .  A
O16         Co24   2.020       .  S
O17          C29   1.275       .  A
O17         Co22   2.006       .  S
O18          C28   1.260       .  A
O18         Co21   1.983       .  S
O19          C26   1.268       .  A
O19         Co24   2.027       .  S
O20          C27   1.307       .  A
O20         Co23   2.148       .  S
Co21         O25   2.060       .  S
Co22         O25   2.039       .  S
Co23         O25   2.057       .  S
Co24         O25   2.086       .  S
C26        C1775   1.492       .  S
C27        C1695   1.517       .  S
C28        C1815   1.525       .  S
C29        C1764   1.520       .  S
O30          C38   1.275       .  A
O30         Co50   2.060       .  S
O31          C39   1.277       .  A
O31         Co51   2.078       .  S
O32          C40   1.259       .  A
O32         Co52   1.977       .  S
O33          C41   1.261       .  A
O33         Co53   1.986       .  S
O34          C40   1.271       .  A
O34         Co51   2.048       .  S
O35          C41   1.264       .  A
O35         Co50   2.009       .  S
O36          C39   1.253       .  A
O36         Co53   1.958       .  S
O37          C38   1.254       .  A
O37         Co52   1.957       .  S
C38        C1675   1.493       .  S
C39        C1575   1.518       .  S
C40        C1564   1.530       .  S
C41        C1624   1.507       .  S
O42          C55   1.267       .  A
O42         Co50   1.996       .  S
O43          C56   1.254       .  A
O43         Co51   1.962       .  S
O44          C57   1.272       .  A
O44         Co52   2.054       .  S
O45          C58   1.274       .  A
O45         Co53   2.073       .  S
O46          C58   1.248       .  A
O46         Co51   1.955       .  S
O47          C57   1.256       .  A
O47         Co50   1.964       .  S
O48          C55   1.270       .  A
O48         Co53   2.028       .  S
O49          C56   1.269       .  A
O49         Co52   2.037       .  S
Co50         O54   2.128       .  S
Co51         O54   2.114       .  S
Co52         O54   2.129       .  S
Co53         O54   2.118       .  S
C55        C1635   1.526       .  S
C56        C1544   1.505       .  S
C57        C1655   1.505       .  S
C58        C1595   1.504       .  S
O59          C67   1.271       .  A
O59         Co79   1.991       .  S
O60          C68   1.272       .  A
O60         Co80   2.009       .  S
O61          C69   1.264       .  A
O61         Co81   2.042       .  S
O62          C70   1.290       .  A
O62         Co82   2.071       .  S
O63          C69   1.262       .  A
O63         Co80   1.991       .  S
O64          C70   1.272       .  A
O64         Co79   1.982       .  S
O65          C68   1.292       .  A
O65         Co82   2.051       .  S
O66          C67   1.268       .  A
O66         Co81   1.996       .  S
C67        C1495   1.482       .  S
C68        C1415   1.522       .  S
C69        C1404   1.502       .  S
C70        C1475   1.498       .  S
O71          C84   1.293       .  A
O71         Co79   2.087       .  S
O72          C85   1.300       .  A
O72         Co80   2.102       .  S
O73          C86   1.276       .  A
O73         Co81   1.998       .  S
O74          C87   1.272       .  A
O74         Co82   2.052       .  S
O75          C87   1.248       .  A
O75         Co80   1.970       .  S
O76          C86   1.274       .  A
O76         Co79   2.018       .  S
O77          C84   1.276       .  A
O77         Co82   1.932       .  S
O78          C85   1.277       .  A
O78         Co81   1.909       .  S
Co79         O83   2.101       .  S
Co80         O83   2.102       .  S
Co81         O83   1.967       .  S
Co82         O83   1.973       .  S
C84        C1464   1.527       .  S
C85        C1375   1.500       .  S
C86        C1524   1.493       .  S
C87        C1435   1.505       .  S
C88        C1355   1.502       .  S
C88          C89   1.444   1_554  A
C88          C93   1.440   1_545  A
C89        C1304   1.542       .  S
C89          C90   1.448       .  A
C90        C1324   1.530       .  S
C90          C91   1.448       .  A
C91        C1264   1.529       .  S
C91          C92   1.441   1_545  A
C92        C1284   1.515       .  S
C92          C93   1.436   1_556  A
C93        C1344   1.537       .  S
C94        C1395   1.500       .  S
C94          C95   1.409       .  A
C94          C99   1.415       .  A
C95          C96   1.414       .  A
C95         H100   1.096       .  S
C96        C1364   1.515       .  S
C96          C97   1.406   1_565  A
C97          C98   1.396       .  A
C97         H101   1.084       .  S
C98        C1235   1.495       .  S
C98          C99   1.411   1_545  A
C99         H102   1.084       .  S
C103       C1584   1.496       .  S
C103        C104   1.412       .  A
C103        C108   1.405       .  A
C104        C105   1.415       .  A
C104        H109   1.076       .  S
C105       C1295   1.514       .  S
C105        C106   1.405       .  A
C106        C107   1.405   1_556  A
C106        H110   1.084   1_556  S
C107       C1224   1.504       .  S
C107        C108   1.409   1_554  A
C108        H111   1.079       .  S
C112       C1755   1.499       .  S
C112        C113   1.405       .  A
C112        C117   1.418       .  A
C113        C114   1.403       .  A
C113        H118   1.082       .  S
C114       C1255   1.493       .  S
C114        C115   1.405   1_565  A
C115        C116   1.408       .  A
C115        H119   1.084       .  S
C116       C1204   1.506       .  S
C116        C117   1.418   1_545  A
C117        H120   1.088       .  S
C121       C1615   1.493       .  S
C121        C122   1.403       .  A
C121        C126   1.416       .  A
C122        C123   1.397       .  A
C122        H127   1.077       .  S
C123       C1315   1.476       .  S
C123        C124   1.399       .  A
C124        C125   1.405       .  A
C124        H128   1.083       .  S
C125       C1175   1.499       .  S
C125        C126   1.417       .  A
C126        H129   1.080       .  S
C130       C1504   1.489       .  S
C130        C131   1.403       .  A
C130        C135   1.406       .  A
C131        C132   1.406       .  A
C131        H136   1.085       .  S
C132       C1164   1.492       .  S
C132        C133   1.408       .  A
C133        C134   1.407       .  A
C133        H137   1.080       .  S
C134       C1335   1.490       .  S
C134        C135   1.405       .  A
C135        H138   1.086       .  S
C139       C1704   1.503       .  S
C139        C140   1.408       .  A
C139        C144   1.416   1_556  A
C140        C141   1.408   1_556  A
C140        H145   1.088       .  S
C141       C1275   1.489       .  S
C141        C142   1.402       .  A
C142        C143   1.403       .  A
C142        H146   1.080       .  S
C143       C1144   1.500       .  S
C143        C144   1.417       .  A
C144        H147   1.081       .  S
C148       C1095   1.548       .  S
C148        C149   1.457   1_554  A
C148        C153   1.452       .  A
C149       C1115   1.527       .  S
C149        C150   1.456   1_655  A
C150       C1015   1.550       .  S
C150        C151   1.444   1_556  A
C151       C1035   1.522       .  S
C151        C152   1.444   1_455  A
C152       C1064   1.526       .  S
C152        C153   1.444       .  A
C153       C1075   1.536       .  S
C154       C1724   1.494       .  S
C154        C155   1.407       .  A
C154        C159   1.411   1_556  A
C155        C156   1.408   1_556  A
C155        H160   1.075       .  S
C156       C1044   1.497       .  S
C156        C157   1.408       .  A
C157        C158   1.407       .  A
C157        H161   1.080       .  S
C158       C1004   1.496       .  S
C158        C159   1.411       .  A
C159        H162   1.088       .  S
C163       C1835   1.512       .  S
C163        C164   1.410       .  A
C163        C168   1.422       .  A
C164        C165   1.408       .  A
C164        H169   1.086       .  S
C165       C1024   1.493       .  S
C165        C166   1.404       .  A
C166        C167   1.406       .  A
C166        H170   1.079       .  S
C167        C975   1.506       .  S
C167        C168   1.421       .  A
C168        H171   1.084       .  S
C172       C1424   1.512       .  S
C172        C173   1.416   1_655  A
C172        C177   1.413       .  A
C173        C174   1.414       .  A
C173        H178   1.078       .  S
C174        C955   1.500       .  S
C174        C175   1.404       .  A
C175        C176   1.399       .  A
C175        H179   1.086       .  S
C176       C1055   1.492       .  S
C176        C177   1.406   1_455  A
C177        H180   1.086       .  S
C181        C944   1.492       .  S
C181        C182   1.416       .  A
C181        C186   1.403       .  A
C182        C183   1.416       .  A
C182        H187   1.083       .  S
C183       C1484   1.499       .  S
C183        C184   1.405       .  A
C184        C185   1.403       .  A
C184        H188   1.084       .  S
C185       C1084   1.489       .  S
C185        C186   1.400       .  A
C186        H189   1.085       .  S
C190        C915   1.489       .  S
C190        C191   1.407   1_455  A
C190        C195   1.406       .  A
C191        C192   1.406       .  A
C191        H196   1.081       .  S
C192       C1535   1.479       .  S
C192        C193   1.399       .  A
C193        C194   1.402       .  A
C193        H197   1.087       .  S
C194       C1124   1.492       .  S
C194        C195   1.408   1_655  A
C195        H198   1.090       .  S
C199        C895   1.498       .  S
C199        C200   1.406       .  A
C199        C204   1.412   1_554  A
C200        C201   1.402   1_554  A
C200        H205   1.091       .  S
C201       C1104   1.485       .  S
C201        C202   1.403       .  A
C202        C203   1.407       .  A
C202        H206   1.072       .  S
C203       C1604   1.496       .  S
C203        C204   1.414       .  A
C204        H207   1.089       .  S
C208        C875   1.536       .  S
C208        C209   1.461       .  A
C208        C213   1.462       .  A
C209        C855   1.547       .  S
C209        C210   1.444       .  A
C210        C835   1.523       .  S
C210        C211   1.442       .  A
C211        C815   1.536       .  S
C211        C212   1.447       .  A
C212        C775   1.531       .  S
C212        C213   1.458       .  A
C213        C795   1.557       .  S
C214        C755   1.518       .  S
C214        C215   1.425       .  A
C214        C219   1.409       .  A
C215        C216   1.422       .  A
C215        H220   1.082       .  S
C216       C1644   1.502       .  S
C216        C217   1.403       .  A
C217        C218   1.402       .  A
C217        H221   1.085       .  S
C218        C884   1.495       .  S
C218        C219   1.403       .  A
C219        H222   1.081       .  S
C223        C735   1.480       .  S
C223        C224   1.402       .  A
C223        C228   1.402       .  A
C224        C225   1.402       .  A
C224        H229   1.081       .  S
C225       C1784   1.474       .  S
C225        C226   1.402       .  A
C226        C227   1.404       .  A
C226        H230   1.080       .  S
C227        C784   1.493       .  S
C227        C228   1.403       .  A
C228        H231   1.084       .  S
C232        C715   1.495       .  S
C232        C233   1.402       .  A
C232        C237   1.417       .  A
C233        C234   1.398       .  A
C233        H238   1.080       .  S
C234        C844   1.488       .  S
C234        C235   1.404       .  A
C235        C236   1.414       .  A
C235        H239   1.085       .  S
C236       C1455   1.528       .  S
C236        C237   1.424       .  A
C237        H240   1.083       .  S
C241        C695   1.501       .  S
C241        C242   1.419       .  A
C241        C246   1.409       .  A
C242        C243   1.417       .  A
C242        H247   1.085       .  S
C243       C1515   1.498       .  S
C243        C244   1.401       .  A
C244        C245   1.397       .  A
C244        H248   1.081       .  S
C245        C824   1.484       .  S
C245        C246   1.406       .  A
C246        H249   1.083       .  S
C250        C675   1.500       .  S
C250        C251   1.407       .  A
C250        C255   1.416       .  A
C251        C252   1.405       .  A
C251        H256   1.084       .  S
C252        C804   1.492       .  S
C252        C253   1.406       .  A
C253        C254   1.409       .  A
C253        H257   1.078       .  S
C254       C1824   1.502       .  S
C254        C255   1.417       .  A
C255        H258   1.084       .  S
C259        C655   1.513       .  S
C259        C260   1.411       .  A
C259        C264   1.421       .  A
C260        C261   1.407       .  A
C260        H265   1.082       .  S
C261        C864   1.493       .  S
C261        C262   1.402       .  A
C262        C263   1.407       .  A
C262        H266   1.086       .  S
C263       C1664   1.504       .  S
C263        C264   1.418       .  A
C264        H267   1.082       .  S
C268        C535   1.535       .  S
C268        C269   1.455   1_655  A
C268        C273   1.452       .  A
C269        C635   1.545       .  S
C269        C270   1.448       .  A
C270        C624   1.533       .  S
C270        C271   1.452   1_465  A
C271        C595   1.531   1_655  S
C271        C272   1.444       .  A
C272        C584   1.542       .  S
C272        C273   1.450   1_545  A
C273        C564   1.534       .  S
C274       C1555   1.499       .  S
C274        C275   1.405       .  A
C274        C279   1.417   1_655  A
C275        C276   1.400   1_655  A
C275        H280   1.090       .  S
C276        C604   1.475       .  S
C276        C277   1.396       .  A
C277        C278   1.402       .  A
C277        H281   1.080       .  S
C278        C524   1.500       .  S
C278        C279   1.418       .  A
C279        H282   1.081       .  S
C283        C495   1.514       .  S
C283        C284   1.416       .  A
C283        C288   1.418       .  A
C284        C285   1.415   1_545  A
C284        H289   1.080       .  S
C285        C615   1.513       .  S
C285        C286   1.408       .  A
C286        C287   1.403       .  A
C286        H290   1.083       .  S
C287       C1744   1.499       .  S
C287        C288   1.413   1_565  A
C288        H291   1.082       .  S
C292        C484   1.500       .  S
C292        C293   1.417       .  A
C292        C297   1.404       .  A
C293        C294   1.418       .  A
C293        H298   1.082       .  S
C294       C1795   1.506       .  S
C294        C295   1.411       .  A
C295        C296   1.409       .  A
C295        H299   1.084       .  S
C296        C644   1.493       .  S
C296        C297   1.403       .  A
C297        H300   1.085       .  S
C301       C1684   1.490       .  S
C301        C302   1.409       .  A
C301        C306   1.405       .  A
C302        C303   1.412       .  A
C302        H307   1.084       .  S
C303        C455   1.510       .  S
C303        C304   1.409       .  A
C304        C305   1.410       .  A
C304        H308   1.077       .  S
C305        C575   1.515       .  S
C305        C306   1.406       .  A
C306        H309   1.084       .  S
C310       C1384   1.491       .  S
C310        C311   1.406       .  A
C310        C315   1.410       .  A
C311        C312   1.406   1_565  A
C311        H316   1.086       .  S
C312        C555   1.484       .  S
C312        C313   1.400       .  A
C313        C314   1.402       .  A
C313        H317   1.088       .  S
C314        C435   1.485       .  S
C314        C315   1.409   1_545  A
C315        H318   1.077       .  S
C319       C1444   1.506       .  S
C319        C320   1.413       .  A
C319        C324   1.407       .  A
C320        C321   1.413   1_655  A
C320        H325   1.084       .  S
C321        C415   1.502       .  S
C321        C322   1.409       .  A
C322        C323   1.413       .  A
C322        H326   1.078       .  S
C323        C544   1.516       .  S
C323        C324   1.411   1_455  A
C324        H327   1.083       .  S
O328        C336   1.291       .  A
O328       Co348   2.007       .  S
O329        C337   1.265       .  A
O329       Co349   1.978       .  S
O330        C338   1.301       .  A
O330       Co350   2.084       .  S
O331        C339   1.266       .  A
O331       Co351   1.988       .  S
O332        C338   1.275       .  A
O332       Co349   1.987       .  S
O333        C339   1.286       .  A
O333       Co348   2.022       .  S
O334        C337   1.281       .  A
O334       Co351   2.055       .  S
O335        C336   1.304       .  A
O335       Co350   2.090       .  S
C336        C504   1.533       .  S
C337        C684   1.499       .  S
C338        C515   1.509       .  S
C339        C764   1.512       .  S
O340        C353   1.272       .  A
O340       Co348   2.020       .  S
O341        C354   1.267       .  A
O341       Co349   1.860       .  S
O342        C355   1.278       .  A
O342       Co350   2.057       .  S
O343        C356   1.262       .  A
O343       Co351   1.993       .  S
O344        C356   1.265       .  A
O344       Co349   2.036       .  S
O345        C355   1.255       .  A
O345       Co348   1.968       .  S
O346        C353   1.274       .  A
O346       Co351   2.005       .  S
O347        C354   1.317       .  A
O347       Co350   2.167       .  S
Co348       O352   2.110       .  S
Co349       O352   1.993       .  S
Co350       O352   2.108       .  S
Co351       O352   2.087       .  S
C353       C1184   1.504       .  S
C354        C924   1.510       .  S
C355       C1195   1.529       .  S
C356        C984   1.513       .  S
O357        C365   1.274       .  A
O357       Co377   2.039       .  S
O358        C366   1.295       .  A
O358       Co378   2.092       .  S
O359        C367   1.279       .  A
O359       Co379   1.961       .  S
O360        C368   1.276       .  A
O360       Co380   2.042       .  S
O361        C367   1.288       .  A
O361       Co378   2.035       .  S
O362        C368   1.250       .  A
O362       Co377   1.952       .  S
O363        C366   1.273       .  A
O363       Co380   1.913       .  S
O364        C365   1.268       .  A
O364       Co379   1.989       .  S
C365        C444   1.498       .  S
C366        C935   1.491       .  S
C367        C904   1.523       .  S
C368        C464   1.511       .  S
O369        C382   1.295       .  A
O369       Co377   2.038       .  S
O370        C383   1.249       .  A
O370       Co378   2.018       .  S
O371        C384   1.280       .  A
O371       Co379   2.017       .  S
O372        C385   1.265       .  A
O372       Co380   2.037       .  S
O373        C385   1.253       .  A
O373       Co378   1.968       .  S
O374        C384   1.284       .  A
O374       Co377   2.018       .  S
O375        C382   1.276       .  A
O375       Co380   2.000       .  S
O376        C383   1.237       .  A
O376       Co379   1.973       .  S
Co377       O381   2.097       .  S
Co378       O381   2.225       .  S
Co379       O381   1.967       .  S
Co380       O381   1.977       .  S
C382        C664   1.530       .  S
C383       C1215   1.497       .  S
C384       C1244   1.498       .  S
C385        C724   1.498       .  S
O386        C394   1.275       .  A
O386       Co406   2.005       .  S
O387        C395   1.273       .  A
O387       Co407   1.923       .  S
O388        C396   1.265       .  A
O388       Co408   1.982       .  S
O389        C397   1.270       .  A
O389       Co409   2.021       .  S
O390        C396   1.284       .  A
O390       Co407   2.019       .  S
O391        C397   1.266       .  A
O391       Co406   1.999       .  S
O392        C395   1.297       .  A
O392       Co409   2.121       .  S
O393        C394   1.282       .  A
O393       Co408   2.046       .  S
C394        C704   1.509       .  S
C395        C964   1.529       .  S
C396        C744   1.502       .  S
C397        C995   1.500       .  S
O398        C411   1.281       .  A
O398       Co406   2.040       .  S
O399        C412   1.270       .  A
O399       Co407   2.001       .  S
O400        C413   1.274       .  A
O400       Co408   2.000       .  S
O401        C414   1.269       .  A
O401       Co409   1.920       .  S
O402        C414   1.297       .  A
O402       Co407   2.131       .  S
O403        C413   1.267       .  A
O403       Co406   1.997       .  S
O404        C411   1.276       .  A
O404       Co409   2.002       .  S
O405        C412   1.282       .  A
O405       Co408   2.028       .  S
Co406       O410   2.056       .  S
Co407       O410   2.030       .  S
Co408       O410   2.058       .  S
Co409       O410   2.028       .  S
C411       C1135   1.503       .  S
C412        C475   1.500       .  S
C413       C1155   1.501       .  S
C414        C424   1.533       .  S
C415        C416   1.408       .  A
C415        C420   1.415       .  A
C416        C417   1.414       .  A
C416       Br428   1.927       .  S
C417        C418   1.418       .  A
C417       Br432   1.925       .  S
C418        C421   1.515       .  S
C418        C419   1.415       .  A
C419        C420   1.418       .  A
C419       Br427   1.929       .  S
C420       Br431   1.927       .  S
C421        C422   1.406       .  A
C421        C426   1.414       .  A
C422        C423   1.413       .  A
C422       Br433   1.938       .  S
C423        C424   1.432       .  A
C423       Br429   1.928       .  S
C424        C425   1.430       .  A
C425        C426   1.425       .  A
C425       Br434   1.933       .  S
C426       Br430   1.933       .  S
C435        C436   1.409       .  A
C435        C440   1.411       .  A
C436        C437   1.410       .  A
C436       Br448   1.930       .  S
C437        C438   1.412       .  A
C437       Br452   1.927       .  S
C438        C441   1.493       .  S
C438        C439   1.410       .  A
C439        C440   1.411       .  A
C439       Br447   1.927       .  S
C440       Br451   1.929       .  S
C441        C442   1.406       .  A
C441        C446   1.410       .  A
C442        C443   1.410       .  A
C442       Br453   1.930       .  S
C443        C444   1.415       .  A
C443       Br449   1.917       .  S
C444        C445   1.406       .  A
C445        C446   1.413       .  A
C445       Br454   1.912       .  S
C446       Br450   1.924       .  S
C455        C456   1.418       .  A
C455        C460   1.423       .  A
C456        C457   1.408       .  A
C456       Br468   1.935       .  S
C457        C458   1.412       .  A
C457       Br472   1.931       .  S
C458        C461   1.500       .  S
C458        C459   1.410       .  A
C459        C460   1.415       .  A
C459       Br467   1.931       .  S
C460       Br471   1.926       .  S
C461        C462   1.418       .  A
C461        C466   1.401       .  A
C462        C463   1.425       .  A
C462       Br473   1.925       .  S
C463        C464   1.419       .  A
C463       Br469   1.927       .  S
C464        C465   1.428       .  A
C465        C466   1.395       .  A
C465       Br474   1.937       .  S
C466       Br470   1.939       .  S
C475        C476   1.411       .  A
C475        C480   1.410       .  A
C476        C477   1.412       .  A
C476       Br488   1.915       .  S
C477        C478   1.407       .  A
C477       Br492   1.927       .  S
C478        C481   1.507       .  S
C478        C479   1.415       .  A
C479        C480   1.421       .  A
C479       Br487   1.924       .  S
C480       Br491   1.925       .  S
C481        C482   1.414       .  A
C481        C486   1.412       .  A
C482        C483   1.418       .  A
C482       Br493   1.928       .  S
C483        C484   1.413       .  A
C483       Br489   1.928       .  S
C484        C485   1.413       .  A
C485        C486   1.415       .  A
C485       Br494   1.928       .  S
C486       Br490   1.928       .  S
C495        C496   1.414       .  A
C495        C500   1.416       .  A
C496        C497   1.407       .  A
C496       Br508   1.916       .  S
C497        C498   1.410       .  A
C497       Br512   1.931       .  S
C498        C501   1.516       .  S
C498        C499   1.424       .  A
C499        C500   1.421       .  A
C499       Br507   1.932       .  S
C500       Br511   1.929       .  S
C501        C502   1.418       .  A
C501        C506   1.404       .  A
C502        C503   1.423       .  A
C502       Br513   1.933       .  S
C503        C504   1.426       .  A
C503       Br509   1.932       .  S
C504        C505   1.438       .  A
C505        C506   1.411       .  A
C505       Br514   1.933       .  S
C506       Br510   1.939       .  S
C515        C516   1.429       .  A
C515        C520   1.419       .  A
C516        C517   1.407       .  A
C516       Br528   1.929       .  S
C517        C518   1.402       .  A
C517       Br532   1.939       .  S
C518        C521   1.494       .  S
C518        C519   1.409       .  A
C519        C520   1.418       .  A
C519       Br527   1.927       .  S
C520       Br531   1.928       .  S
C521        C522   1.406       .  A
C521        C526   1.410       .  A
C522        C523   1.407       .  A
C522       Br533   1.930       .  S
C523        C524   1.421       .  A
C523       Br529   1.933       .  S
C524        C525   1.416       .  A
C525        C526   1.415       .  A
C525       Br534   1.929       .  S
C526       Br530   1.926       .  S
C535        C536   1.429       .  A
C535        C540   1.424       .  A
C536        C537   1.410       .  A
C536       Br548   1.914   1_655  S
C537        C538   1.407       .  A
C537       Br552   1.940       .  S
C538        C541   1.503       .  S
C538        C539   1.411       .  A
C539        C540   1.411       .  A
C539       Br547   1.931       .  S
C540       Br551   1.927       .  S
C541        C542   1.410       .  A
C541        C546   1.413   1_655  A
C542        C543   1.410       .  A
C542       Br553   1.930       .  S
C543        C544   1.423   1_655  A
C543       Br549   1.932       .  S
C544        C545   1.424       .  A
C545        C546   1.411       .  A
C545       Br554   1.931       .  S
C546       Br550   1.935       .  S
C555        C556   1.410   1_545  A
C555        C560   1.412       .  A
C556        C557   1.407       .  A
C556       Br568   1.930       .  S
C557        C558   1.410   1_565  A
C557       Br572   1.927       .  S
C558        C561   1.491   1_545  S
C558        C559   1.410       .  A
C559        C560   1.410       .  A
C559       Br567   1.924       .  S
C560       Br571   1.930       .  S
C561        C562   1.402       .  A
C561        C566   1.402   1_565  A
C562        C563   1.411       .  A
C562       Br573   1.938       .  S
C563        C564   1.430       .  A
C563       Br569   1.919       .  S
C564        C565   1.428   1_565  A
C565        C566   1.413       .  A
C565       Br574   1.926       .  S
C566       Br570   1.931       .  S
C575        C576   1.422       .  A
C575        C580   1.428       .  A
C576        C577   1.407       .  A
C576       Br588   1.936       .  S
C577        C578   1.411       .  A
C577       Br592   1.931       .  S
C578        C581   1.501       .  S
C578        C579   1.408       .  A
C579        C580   1.411       .  A
C579       Br587   1.932       .  S
C580       Br591   1.929       .  S
C581        C582   1.409       .  A
C581        C586   1.404       .  A
C582        C583   1.415       .  A
C582       Br593   1.934       .  S
C583        C584   1.428       .  A
C583       Br589   1.928   1_545  S
C584        C585   1.433       .  A
C585        C586   1.412       .  A
C585       Br594   1.917       .  S
C586       Br590   1.940       .  S
C595        C596   1.432   1_455  A
C595        C600   1.427       .  A
C596        C597   1.409       .  A
C596       Br608   1.918       .  S
C597        C598   1.402   1_655  A
C597       Br612   1.942       .  S
C598        C601   1.489       .  S
C598        C599   1.403       .  A
C599        C600   1.413       .  A
C599       Br607   1.934       .  S
C600       Br611   1.928       .  S
C601        C602   1.411       .  A
C601        C606   1.411       .  A
C602        C603   1.406       .  A
C602       Br613   1.922       .  S
C603        C604   1.406       .  A
C603       Br609   1.929   1_455  S
C604        C605   1.409       .  A
C605        C606   1.406       .  A
C605       Br614   1.931       .  S
C606       Br610   1.925       .  S
C615        C616   1.418   1_565  A
C615        C620   1.424       .  A
C616        C617   1.403       .  A
C616       Br628   1.917       .  S
C617        C618   1.406   1_545  A
C617       Br632   1.927       .  S
C618        C621   1.498       .  S
C618        C619   1.410       .  A
C619        C620   1.416       .  A
C619       Br627   1.928       .  S
C620       Br631   1.931       .  S
C621        C622   1.406       .  A
C621        C626   1.406       .  A
C622        C623   1.412       .  A
C622       Br633   1.928       .  S
C623        C624   1.426       .  A
C623       Br629   1.926   1_455  S
C624        C625   1.431       .  A
C625        C626   1.410       .  A
C625       Br634   1.920       .  S
C626       Br630   1.940       .  S
C635        C636   1.435       .  A
C635        C640   1.429       .  A
C636        C637   1.416       .  A
C636       Br648   1.920       .  S
C637        C638   1.403       .  A
C637       Br652   1.939       .  S
C638        C641   1.503       .  S
C638        C639   1.405       .  A
C639        C640   1.417       .  A
C639       Br647   1.929       .  S
C640       Br651   1.928       .  S
C641        C642   1.412       .  A
C641        C646   1.411       .  A
C642        C643   1.414       .  A
C642       Br653   1.925       .  S
C643        C644   1.412       .  A
C643       Br649   1.929       .  S
C644        C645   1.411       .  A
C645        C646   1.412       .  A
C645       Br654   1.930       .  S
C646       Br650   1.920       .  S
C655        C656   1.420       .  A
C655        C660   1.418       .  A
C656        C657   1.417       .  A
C656       Br668   1.932       .  S
C657        C658   1.412       .  A
C657       Br672   1.931       .  S
C658        C661   1.509       .  S
C658        C659   1.412       .  A
C659        C660   1.419       .  A
C659       Br667   1.928       .  S
C660       Br671   1.926       .  S
C661        C662   1.414       .  A
C661        C666   1.401       .  A
C662        C663   1.428       .  A
C662       Br673   1.925       .  S
C663        C664   1.423       .  A
C663       Br669   1.927       .  S
C664        C665   1.438       .  A
C665        C666   1.410       .  A
C665       Br674   1.935       .  S
C666       Br670   1.941       .  S
C675        C676   1.414       .  A
C675        C680   1.411       .  A
C676        C677   1.419       .  A
C676       Br688   1.927       .  S
C677        C678   1.413       .  A
C677       Br692   1.927       .  S
C678        C681   1.505       .  S
C678        C679   1.412       .  A
C679        C680   1.413       .  A
C679       Br687   1.929       .  S
C680       Br691   1.928       .  S
C681        C682   1.410       .  A
C681        C686   1.415       .  A
C682        C683   1.413       .  A
C682       Br693   1.929       .  S
C683        C684   1.412       .  A
C683       Br689   1.919       .  S
C684        C685   1.408       .  A
C685        C686   1.417       .  A
C685       Br694   1.927       .  S
C686       Br690   1.924       .  S
C695        C696   1.410       .  A
C695        C700   1.414       .  A
C696        C697   1.415       .  A
C696       Br708   1.929       .  S
C697        C698   1.416       .  A
C697       Br712   1.927       .  S
C698        C701   1.510       .  S
C698        C699   1.413       .  A
C699        C700   1.419       .  A
C699       Br707   1.927       .  S
C700       Br711   1.928       .  S
C701        C702   1.417       .  A
C701        C706   1.408       .  A
C702        C703   1.424       .  A
C702       Br713   1.925       .  S
C703        C704   1.413       .  A
C703       Br709   1.926       .  S
C704        C705   1.412       .  A
C705        C706   1.411       .  A
C705       Br714   1.913       .  S
C706       Br710   1.930       .  S
C715        C716   1.411       .  A
C715        C720   1.411       .  A
C716        C717   1.410       .  A
C716       Br728   1.930       .  S
C717        C718   1.412       .  A
C717       Br732   1.927       .  S
C718        C721   1.504       .  S
C718        C719   1.415       .  A
C719        C720   1.418       .  A
C719       Br727   1.928       .  S
C720       Br731   1.925       .  S
C721        C722   1.412       .  A
C721        C726   1.413       .  A
C722        C723   1.414       .  A
C722       Br733   1.931       .  S
C723        C724   1.414       .  A
C723       Br729   1.925       .  S
C724        C725   1.409       .  A
C725        C726   1.414       .  A
C725       Br734   1.913       .  S
C726       Br730   1.928       .  S
C735        C736   1.409       .  A
C735        C740   1.408       .  A
C736        C737   1.407       .  A
C736       Br748   1.929       .  S
C737        C738   1.411       .  A
C737       Br752   1.929       .  S
C738        C741   1.496       .  S
C738        C739   1.419       .  A
C739        C740   1.406       .  A
C739       Br747   1.929       .  S
C740       Br751   1.936       .  S
C741        C742   1.403       .  A
C741        C746   1.411       .  A
C742        C743   1.404       .  A
C742       Br753   1.936       .  S
C743        C744   1.423       .  A
C743       Br749   1.919       .  S
C744        C745   1.417       .  A
C745        C746   1.416       .  A
C745       Br754   1.913       .  S
C746       Br750   1.933       .  S
C755        C756   1.418       .  A
C755        C760   1.424       .  A
C756        C757   1.418       .  A
C756       Br768   1.930       .  S
C757        C758   1.412       .  A
C757       Br772   1.922       .  S
C758        C761   1.512       .  S
C758        C759   1.408       .  A
C759        C760   1.418       .  A
C759       Br767   1.927       .  S
C760       Br771   1.932       .  S
C761        C762   1.414       .  A
C761        C766   1.405       .  A
C762        C763   1.426       .  A
C762       Br773   1.926       .  S
C763        C764   1.421       .  A
C763       Br769   1.928       .  S
C764        C765   1.427       .  A
C765        C766   1.411       .  A
C765       Br774   1.931       .  S
C766       Br770   1.935       .  S
C775        C776   1.434       .  A
C775        C780   1.426       .  A
C776        C777   1.409       .  A
C776       Br788   1.919       .  S
C777        C778   1.398       .  A
C777       Br792   1.940       .  S
C778        C781   1.484       .  S
C778        C779   1.400       .  A
C779        C780   1.411       .  A
C779       Br787   1.933       .  S
C780       Br791   1.920       .  S
C781        C782   1.405       .  A
C781        C786   1.406       .  A
C782        C783   1.407       .  A
C782       Br793   1.930       .  S
C783        C784   1.421       .  A
C783       Br789   1.934       .  S
C784        C785   1.419       .  A
C785        C786   1.406       .  A
C785       Br794   1.935       .  S
C786       Br790   1.929       .  S
C795        C796   1.436       .  A
C795        C800   1.435       .  A
C796        C797   1.418       .  A
C796       Br808   1.914       .  S
C797        C798   1.401       .  A
C797       Br812   1.938       .  S
C798        C801   1.503       .  S
C798        C799   1.401       .  A
C799        C800   1.419       .  A
C799       Br807   1.936       .  S
C800       Br811   1.915       .  S
C801        C802   1.413       .  A
C801        C806   1.413       .  A
C802        C803   1.413       .  A
C802       Br813   1.928       .  S
C803        C804   1.410       .  A
C803       Br809   1.928       .  S
C804        C805   1.411       .  A
C805        C806   1.414       .  A
C805       Br814   1.929       .  S
C806       Br810   1.927       .  S
C815        C816   1.429       .  A
C815        C820   1.429       .  A
C816        C817   1.410       .  A
C816       Br828   1.909       .  S
C817        C818   1.401       .  A
C817       Br832   1.942       .  S
C818        C821   1.492       .  S
C818        C819   1.403       .  A
C819        C820   1.416       .  A
C819       Br827   1.930       .  S
C820       Br831   1.931       .  S
C821        C822   1.408       .  A
C821        C826   1.411       .  A
C822        C823   1.408       .  A
C822       Br833   1.923       .  S
C823        C824   1.411       .  A
C823       Br829   1.931       .  S
C824        C825   1.410       .  A
C825        C826   1.410       .  A
C825       Br834   1.929       .  S
C826       Br830   1.927       .  S
C835        C836   1.425       .  A
C835        C840   1.422       .  A
C836        C837   1.418       .  A
C836       Br848   1.936       .  S
C837        C838   1.411       .  A
C837       Br852   1.930       .  S
C838        C841   1.501       .  S
C838        C839   1.405       .  A
C839        C840   1.405       .  A
C839       Br847   1.935       .  S
C840       Br851   1.918       .  S
C841        C842   1.418       .  A
C841        C846   1.414       .  A
C842        C843   1.408       .  A
C842       Br853   1.931       .  S
C843        C844   1.407       .  A
C843       Br849   1.928       .  S
C844        C845   1.411       .  A
C845        C846   1.411       .  A
C845       Br854   1.928       .  S
C846       Br850   1.928       .  S
C855        C856   1.440       .  A
C855        C860   1.425       .  A
C856        C857   1.414       .  A
C856       Br868   1.914       .  S
C857        C858   1.401       .  A
C857       Br872   1.945       .  S
C858        C861   1.500       .  S
C858        C859   1.406       .  A
C859        C860   1.415       .  A
C859       Br867   1.929       .  S
C860       Br871   1.921       .  S
C861        C862   1.416       .  A
C861        C866   1.412       .  A
C862        C863   1.412       .  A
C862       Br873   1.931       .  S
C863        C864   1.410       .  A
C863       Br869   1.929       .  S
C864        C865   1.412       .  A
C865        C866   1.412       .  A
C865       Br874   1.928       .  S
C866       Br870   1.931       .  S
C875        C876   1.430       .  A
C875        C880   1.429       .  A
C876        C877   1.412       .  A
C876       Br888   1.912       .  S
C877        C878   1.400       .  A
C877       Br892   1.938       .  S
C878        C881   1.492       .  S
C878        C879   1.402       .  A
C879        C880   1.413       .  A
C879       Br887   1.935       .  S
C880       Br891   1.920       .  S
C881        C882   1.406       .  A
C881        C886   1.409       .  A
C882        C883   1.407       .  A
C882       Br893   1.928       .  S
C883        C884   1.417       .  A
C883       Br889   1.930       .  S
C884        C885   1.416       .  A
C885        C886   1.411       .  A
C885       Br894   1.931       .  S
C886       Br890   1.927       .  S
C895        C896   1.414       .  A
C895        C900   1.412       .  A
C896        C897   1.414       .  A
C896       Br908   1.932       .  S
C897        C898   1.413       .  A
C897       Br912   1.929       .  S
C898        C901   1.507       .  S
C898        C899   1.417       .  A
C899        C900   1.415       .  A
C899       Br907   1.933       .  S
C900       Br911   1.929       .  S
C901        C902   1.412       .  A
C901        C906   1.406       .  A
C902        C903   1.420       .  A
C902       Br913   1.930       .  S
C903        C904   1.424       .  A
C903       Br909   1.930       .  S
C904        C905   1.431       .  A
C905        C906   1.413       .  A
C905       Br914   1.927       .  S
C906       Br910   1.939       .  S
C915        C916   1.411       .  A
C915        C920   1.410       .  A
C916        C917   1.408       .  A
C916       Br928   1.926       .  S
C917        C918   1.411       .  A
C917       Br932   1.932       .  S
C918        C921   1.496       .  S
C918        C919   1.414       .  A
C919        C920   1.412       .  A
C919       Br927   1.928       .  S
C920       Br931   1.929       .  S
C921        C922   1.406       .  A
C921        C926   1.409       .  A
C922        C923   1.410       .  A
C922       Br933   1.935       .  S
C923        C924   1.429       .  A
C923       Br929   1.939       .  S
C924        C925   1.421       .  A
C925        C926   1.414       .  A
C925       Br934   1.926       .  S
C926       Br930   1.932       .  S
C935        C936   1.411       .  A
C935        C940   1.411       .  A
C936        C937   1.416       .  A
C936       Br948   1.926       .  S
C937        C938   1.413       .  A
C937       Br952   1.927       .  S
C938        C941   1.500       .  S
C938        C939   1.410       .  A
C939        C940   1.411       .  A
C939       Br947   1.930       .  S
C940       Br951   1.924       .  S
C941        C942   1.413       .  A
C941        C946   1.412       .  A
C942        C943   1.415       .  A
C942       Br953   1.927       .  S
C943        C944   1.412       .  A
C943       Br949   1.926       .  S
C944        C945   1.411       .  A
C945        C946   1.409       .  A
C945       Br954   1.929       .  S
C946       Br950   1.927       .  S
C955        C956   1.414       .  A
C955        C960   1.418       .  A
C956        C957   1.412       .  A
C956       Br968   1.932       .  S
C957        C958   1.415       .  A
C957       Br972   1.927       .  S
C958        C961   1.503       .  S
C958        C959   1.410       .  A
C959        C960   1.412       .  A
C959       Br967   1.930       .  S
C960       Br971   1.932       .  S
C961        C962   1.403       .  A
C961        C966   1.408       .  A
C962        C963   1.410       .  A
C962       Br973   1.940       .  S
C963        C964   1.433       .  A
C963       Br969   1.925       .  S
C964        C965   1.430       .  A
C965        C966   1.420       .  A
C965       Br974   1.924       .  S
C966       Br970   1.934       .  S
C975        C976   1.412       .  A
C975        C980   1.413       .  A
C976        C977   1.418       .  A
C976       Br988   1.930       .  S
C977        C978   1.418       .  A
C977       Br992   1.926       .  S
C978        C981   1.520       .  S
C978        C979   1.417       .  A
C979        C980   1.421       .  A
C979       Br987   1.928       .  S
C980       Br991   1.928       .  S
C981        C982   1.415       .  A
C981        C986   1.416       .  A
C982        C983   1.420       .  A
C982       Br993   1.927       .  S
C983        C984   1.408       .  A
C983       Br989   1.910       .  S
C984        C985   1.417       .  A
C985        C986   1.421       .  A
C985       Br994   1.924       .  S
C986       Br990   1.929       .  S
C995        C996   1.410       .  A
C995       C1000   1.413       .  A
C996        C997   1.419       .  A
C996      Br1008   1.927       .  S
C997        C998   1.415       .  A
C997      Br1012   1.925       .  S
C998       C1001   1.503       .  S
C998        C999   1.409       .  A
C999       C1000   1.410       .  A
C999      Br1007   1.931       .  S
C1000     Br1011   1.921       .  S
C1001      C1002   1.413       .  A
C1001      C1006   1.412       .  A
C1002      C1003   1.416       .  A
C1002     Br1013   1.927       .  S
C1003      C1004   1.411       .  A
C1003     Br1009   1.928       .  S
C1004      C1005   1.412       .  A
C1005      C1006   1.414       .  A
C1005     Br1014   1.928       .  S
C1006     Br1010   1.929       .  S
C1015      C1016   1.424       .  A
C1015      C1020   1.440       .  A
C1016      C1017   1.414       .  A
C1016     Br1028   1.921       .  S
C1017      C1018   1.408       .  A
C1017     Br1032   1.932       .  S
C1018      C1021   1.506       .  S
C1018      C1019   1.404       .  A
C1019      C1020   1.418       .  A
C1019     Br1027   1.943       .  S
C1020     Br1031   1.915       .  S
C1021      C1022   1.415       .  A
C1021      C1026   1.418       .  A
C1022      C1023   1.413       .  A
C1022     Br1033   1.932       .  S
C1023      C1024   1.411       .  A
C1023     Br1029   1.929       .  S
C1024      C1025   1.410       .  A
C1025      C1026   1.413       .  A
C1025     Br1034   1.930       .  S
C1026     Br1030   1.930       .  S
C1035      C1036   1.425       .  A
C1035      C1040   1.421       .  A
C1036      C1037   1.419       .  A
C1036     Br1048   1.936   1_454  S
C1037      C1038   1.411       .  A
C1037     Br1052   1.929   1_554  S
C1038      C1041   1.501       .  S
C1038      C1039   1.404       .  A
C1039      C1040   1.404       .  A
C1039     Br1047   1.935       .  S
C1040     Br1051   1.914       .  S
C1041      C1042   1.415   1_554  A
C1041      C1046   1.412       .  A
C1042      C1043   1.409       .  A
C1042     Br1053   1.932       .  S
C1043      C1044   1.413   1_556  A
C1043     Br1049   1.932       .  S
C1044      C1045   1.415       .  A
C1045      C1046   1.414       .  A
C1045     Br1054   1.929       .  S
C1046     Br1050   1.926       .  S
C1055      C1056   1.416       .  A
C1055      C1060   1.414       .  A
C1056      C1057   1.408       .  A
C1056     Br1068   1.931       .  S
C1057      C1058   1.405       .  A
C1057     Br1072   1.925       .  S
C1058      C1061   1.491       .  S
C1058      C1059   1.409       .  A
C1059      C1060   1.412       .  A
C1059     Br1067   1.928   1_455  S
C1060     Br1071   1.928   1_455  S
C1061      C1062   1.403   1_455  A
C1061      C1066   1.404       .  A
C1062      C1063   1.408       .  A
C1062     Br1073   1.942       .  S
C1063      C1064   1.425       .  A
C1063     Br1069   1.909       .  S
C1064      C1065   1.427   1_655  A
C1065      C1066   1.415       .  A
C1065     Br1074   1.933       .  S
C1066     Br1070   1.929       .  S
C1075      C1076   1.426       .  A
C1075      C1080   1.436       .  A
C1076      C1077   1.411       .  A
C1076     Br1088   1.921       .  S
C1077      C1078   1.402       .  A
C1077     Br1092   1.933       .  S
C1078      C1081   1.488       .  S
C1078      C1079   1.398       .  A
C1079      C1080   1.411       .  A
C1079     Br1087   1.941       .  S
C1080     Br1091   1.919       .  S
C1081      C1082   1.409       .  A
C1081      C1086   1.407       .  A
C1082      C1083   1.407       .  A
C1082     Br1093   1.931       .  S
C1083      C1084   1.414       .  A
C1083     Br1089   1.932       .  S
C1084      C1085   1.416       .  A
C1085      C1086   1.407       .  A
C1085     Br1094   1.929       .  S
C1086     Br1090   1.924       .  S
C1095      C1096   1.434   1_554  A
C1095      C1100   1.434       .  A
C1096      C1097   1.412       .  A
C1096     Br1108   1.913       .  S
C1097      C1098   1.399       .  A
C1097     Br1112   1.938       .  S
C1098      C1101   1.493       .  S
C1098      C1099   1.401   1_556  A
C1099      C1100   1.414       .  A
C1099     Br1107   1.936       .  S
C1100     Br1111   1.918       .  S
C1101      C1102   1.412   1_556  A
C1101      C1106   1.410       .  A
C1102      C1103   1.410       .  A
C1102     Br1113   1.928       .  S
C1103      C1104   1.410   1_554  A
C1103     Br1109   1.929       .  S
C1104      C1105   1.411       .  A
C1105      C1106   1.409       .  A
C1105     Br1114   1.929       .  S
C1106     Br1110   1.929       .  S
C1115      C1116   1.428       .  A
C1115      C1120   1.429       .  A
C1116      C1117   1.409       .  A
C1116     Br1128   1.922       .  S
C1117      C1118   1.401       .  A
C1117     Br1132   1.935       .  S
C1118      C1121   1.481       .  S
C1118      C1119   1.398       .  A
C1119      C1120   1.406       .  A
C1119     Br1127   1.940       .  S
C1120     Br1131   1.910       .  S
C1121      C1122   1.404       .  A
C1121      C1126   1.403   1_655  A
C1122      C1123   1.407       .  A
C1122     Br1133   1.928       .  S
C1123      C1124   1.420       .  A
C1123     Br1129   1.928       .  S
C1124      C1125   1.415   1_655  A
C1125      C1126   1.401       .  A
C1125     Br1134   1.926       .  S
C1126     Br1130   1.922       .  S
C1135      C1136   1.413       .  A
C1135      C1140   1.412       .  A
C1136      C1137   1.414       .  A
C1136     Br1148   1.923       .  S
C1137      C1138   1.410       .  A
C1137     Br1152   1.928       .  S
C1138      C1141   1.508       .  S
C1138      C1139   1.416       .  A
C1139      C1140   1.420       .  A
C1139     Br1147   1.927       .  S
C1140     Br1151   1.922       .  S
C1141      C1142   1.415       .  A
C1141      C1146   1.413       .  A
C1142      C1143   1.413       .  A
C1142     Br1153   1.924       .  S
C1143      C1144   1.411       .  A
C1143     Br1149   1.932       .  S
C1144      C1145   1.416       .  A
C1145      C1146   1.417       .  A
C1145     Br1154   1.930       .  S
C1146     Br1150   1.928       .  S
C1155      C1156   1.417       .  A
C1155      C1160   1.420       .  A
C1156      C1157   1.419       .  A
C1156     Br1168   1.929       .  S
C1157      C1158   1.412       .  A
C1157     Br1172   1.929       .  S
C1158      C1161   1.499       .  S
C1158      C1159   1.405       .  A
C1159      C1160   1.407       .  A
C1159     Br1167   1.934       .  S
C1160     Br1171   1.921       .  S
C1161      C1162   1.411       .  A
C1161      C1166   1.413       .  A
C1162      C1163   1.414       .  A
C1162     Br1173   1.928       .  S
C1163      C1164   1.415       .  A
C1163     Br1169   1.930       .  S
C1164      C1165   1.412       .  A
C1165      C1166   1.408       .  A
C1165     Br1174   1.935       .  S
C1166     Br1170   1.925       .  S
C1175      C1176   1.412       .  A
C1175      C1180   1.415       .  A
C1176      C1177   1.414       .  A
C1176     Br1188   1.929       .  S
C1177      C1178   1.417       .  A
C1177     Br1192   1.931       .  S
C1178      C1181   1.504       .  S
C1178      C1179   1.411       .  A
C1179      C1180   1.412       .  A
C1179     Br1187   1.930       .  S
C1180     Br1191   1.929       .  S
C1181      C1182   1.415       .  A
C1181      C1186   1.408       .  A
C1182      C1183   1.419       .  A
C1182     Br1193   1.932       .  S
C1183      C1184   1.417       .  A
C1183     Br1189   1.929       .  S
C1184      C1185   1.417       .  A
C1185      C1186   1.410       .  A
C1185     Br1194   1.916       .  S
C1186     Br1190   1.935       .  S
C1195      C1196   1.434       .  A
C1195      C1200   1.420       .  A
C1196      C1197   1.409       .  A
C1196     Br1208   1.924       .  S
C1197      C1198   1.401       .  A
C1197     Br1212   1.942       .  S
C1198      C1201   1.511       .  S
C1198      C1199   1.416       .  A
C1199      C1200   1.429       .  A
C1199     Br1207   1.925       .  S
C1200     Br1211   1.925       .  S
C1201      C1202   1.416       .  A
C1201      C1206   1.413       .  A
C1202      C1203   1.424       .  A
C1202     Br1213   1.926       .  S
C1203      C1204   1.416       .  A
C1203     Br1209   1.927       .  S
C1204      C1205   1.411       .  A
C1205      C1206   1.409       .  A
C1205     Br1214   1.927       .  S
C1206     Br1210   1.928       .  S
C1215      C1216   1.413       .  A
C1215      C1220   1.425       .  A
C1216      C1217   1.415       .  A
C1216     Br1228   1.929       .  S
C1217      C1218   1.412       .  A
C1217     Br1232   1.928       .  S
C1218      C1221   1.491       .  S
C1218      C1219   1.403       .  A
C1219      C1220   1.405       .  A
C1219     Br1227   1.940       .  S
C1220     Br1231   1.924       .  S
C1221      C1222   1.407       .  A
C1221      C1226   1.406       .  A
C1222      C1223   1.408       .  A
C1222     Br1233   1.932       .  S
C1223      C1224   1.424       .  A
C1223     Br1229   1.937       .  S
C1224      C1225   1.422       .  A
C1225      C1226   1.408       .  A
C1225     Br1234   1.934       .  S
C1226     Br1230   1.925       .  S
C1235      C1236   1.409       .  A
C1235      C1240   1.415       .  A
C1236      C1237   1.417       .  A
C1236     Br1248   1.926       .  S
C1237      C1238   1.415       .  A
C1237     Br1252   1.926       .  S
C1238      C1241   1.504       .  S
C1238      C1239   1.410       .  A
C1239      C1240   1.413       .  A
C1239     Br1247   1.929       .  S
C1240     Br1251   1.931       .  S
C1241      C1242   1.408       .  A
C1241      C1246   1.415       .  A
C1242      C1243   1.410       .  A
C1242     Br1253   1.931       .  S
C1243      C1244   1.412       .  A
C1243     Br1249   1.920       .  S
C1244      C1245   1.413       .  A
C1245      C1246   1.420       .  A
C1245     Br1254   1.925       .  S
C1246     Br1250   1.926       .  S
C1255      C1256   1.414   1_565  A
C1255      C1260   1.414       .  A
C1256      C1257   1.408       .  A
C1256     Br1268   1.924       .  S
C1257      C1258   1.407   1_545  A
C1257     Br1272   1.925       .  S
C1258      C1261   1.490   1_565  S
C1258      C1259   1.410       .  A
C1259      C1260   1.408       .  A
C1259     Br1267   1.933       .  S
C1260     Br1271   1.929       .  S
C1261      C1262   1.404   1_545  A
C1261      C1266   1.399       .  A
C1262      C1263   1.414       .  A
C1262     Br1273   1.930       .  S
C1263      C1264   1.426   1_565  A
C1263     Br1269   1.925       .  S
C1264      C1265   1.428       .  A
C1265      C1266   1.407       .  A
C1265     Br1274   1.912       .  S
C1266     Br1270   1.941       .  S
C1275      C1276   1.413       .  A
C1275      C1280   1.412       .  A
C1276      C1277   1.411       .  A
C1276     Br1288   1.927   1_554  S
C1277      C1278   1.409       .  A
C1277     Br1292   1.929   1_554  S
C1278      C1281   1.491       .  S
C1278      C1279   1.407       .  A
C1279      C1280   1.408       .  A
C1279     Br1287   1.919       .  S
C1280     Br1291   1.930       .  S
C1281      C1282   1.405   1_554  A
C1281      C1286   1.405       .  A
C1282      C1283   1.408       .  A
C1282     Br1293   1.939       .  S
C1283      C1284   1.421       .  A
C1283     Br1289   1.913       .  S
C1284      C1285   1.424   1_556  A
C1285      C1286   1.413       .  A
C1285     Br1294   1.938   1_565  S
C1286     Br1290   1.927       .  S
C1295      C1296   1.425       .  A
C1295      C1300   1.421       .  A
C1296      C1297   1.416       .  A
C1296     Br1308   1.932   1_556  S
C1297      C1298   1.409       .  A
C1297     Br1312   1.928   1_556  S
C1298      C1301   1.501       .  S
C1298      C1299   1.412       .  A
C1299      C1300   1.408       .  A
C1299     Br1307   1.930       .  S
C1300     Br1311   1.936       .  S
C1301      C1302   1.400   1_556  A
C1301      C1306   1.408       .  A
C1302      C1303   1.409   1_554  A
C1302     Br1313   1.942       .  S
C1303      C1304   1.436       .  A
C1303     Br1309   1.905       .  S
C1304      C1305   1.423       .  A
C1305      C1306   1.416       .  A
C1305     Br1314   1.924   1_556  S
C1306     Br1310   1.923       .  S
C1315      C1316   1.408       .  A
C1315      C1320   1.407       .  A
C1316      C1317   1.409       .  A
C1316     Br1328   1.928       .  S
C1317      C1318   1.411       .  A
C1317     Br1332   1.927       .  S
C1318      C1321   1.486       .  S
C1318      C1319   1.411       .  A
C1319      C1320   1.403       .  A
C1319     Br1327   1.928       .  S
C1320     Br1331   1.930       .  S
C1321      C1322   1.400       .  A
C1321      C1326   1.401       .  A
C1322      C1323   1.407       .  A
C1322     Br1333   1.940       .  S
C1323      C1324   1.427       .  A
C1323     Br1329   1.910       .  S
C1324      C1325   1.427       .  A
C1325      C1326   1.413       .  A
C1325     Br1334   1.917       .  S
C1326     Br1330   1.935       .  S
C1335      C1336   1.412       .  A
C1335      C1340   1.410       .  A
C1336      C1337   1.414       .  A
C1336     Br1348   1.930       .  S
C1337      C1338   1.416       .  A
C1337     Br1352   1.930       .  S
C1338      C1341   1.500       .  S
C1338      C1339   1.416       .  A
C1339      C1340   1.408       .  A
C1339     Br1347   1.933       .  S
C1340     Br1351   1.932       .  S
C1341      C1342   1.407       .  A
C1341      C1346   1.403       .  A
C1342      C1343   1.416       .  A
C1342     Br1353   1.930       .  S
C1343      C1344   1.426       .  A
C1343     Br1349   1.916   1_554  S
C1344      C1345   1.426       .  A
C1345      C1346   1.407       .  A
C1345     Br1354   1.906       .  S
C1346     Br1350   1.939       .  S
C1355      C1356   1.421   1_545  A
C1355      C1360   1.412       .  A
C1356      C1357   1.408       .  A
C1356     Br1368   1.926   1_554  S
C1357      C1358   1.408       .  A
C1357     Br1372   1.938       .  S
C1358      C1361   1.493       .  S
C1358      C1359   1.412   1_565  A
C1359      C1360   1.405       .  A
C1359     Br1367   1.933       .  S
C1360     Br1371   1.924       .  S
C1361      C1362   1.414       .  A
C1361      C1366   1.405   1_565  A
C1362      C1363   1.413       .  A
C1362     Br1373   1.935       .  S
C1363      C1364   1.427       .  A
C1363     Br1369   1.931       .  S
C1364      C1365   1.426   1_565  A
C1365      C1366   1.397       .  A
C1365     Br1374   1.934       .  S
C1366     Br1370   1.936       .  S
C1375      C1376   1.415       .  A
C1375      C1380   1.419       .  A
C1376      C1377   1.414       .  A
C1376     Br1388   1.924       .  S
C1377      C1378   1.411       .  A
C1377     Br1392   1.929       .  S
C1378      C1381   1.497       .  S
C1378      C1379   1.408       .  A
C1379      C1380   1.410       .  A
C1379     Br1387   1.932       .  S
C1380     Br1391   1.930       .  S
C1381      C1382   1.412       .  A
C1381      C1386   1.411       .  A
C1382      C1383   1.411       .  A
C1382     Br1393   1.929       .  S
C1383      C1384   1.411       .  A
C1383     Br1389   1.930       .  S
C1384      C1385   1.412       .  A
C1385      C1386   1.412       .  A
C1385     Br1394   1.929       .  S
C1386     Br1390   1.929       .  S
C1395      C1396   1.415       .  A
C1395      C1400   1.406       .  A
C1396      C1397   1.419       .  A
C1396     Br1408   1.928       .  S
C1397      C1398   1.413       .  A
C1397     Br1412   1.927       .  S
C1398      C1401   1.515       .  S
C1398      C1399   1.417       .  A
C1399      C1400   1.415       .  A
C1399     Br1407   1.913       .  S
C1400     Br1411   1.929       .  S
C1401      C1402   1.417       .  A
C1401      C1406   1.410       .  A
C1402      C1403   1.423       .  A
C1402     Br1413   1.926       .  S
C1403      C1404   1.412       .  A
C1403     Br1409   1.926       .  S
C1404      C1405   1.415       .  A
C1405      C1406   1.416       .  A
C1405     Br1414   1.928       .  S
C1406     Br1410   1.928       .  S
C1415      C1416   1.427       .  A
C1415      C1420   1.431       .  A
C1416      C1417   1.414       .  A
C1416     Br1428   1.937       .  S
C1417      C1418   1.410       .  A
C1417     Br1432   1.933       .  S
C1418      C1421   1.508       .  S
C1418      C1419   1.410       .  A
C1419      C1420   1.416       .  A
C1419     Br1427   1.935       .  S
C1420     Br1431   1.936       .  S
C1421      C1422   1.411       .  A
C1421      C1426   1.413       .  A
C1422      C1423   1.412       .  A
C1422     Br1433   1.931       .  S
C1423      C1424   1.420       .  A
C1423     Br1429   1.933       .  S
C1424      C1425   1.421       .  A
C1425      C1426   1.417       .  A
C1425     Br1434   1.931       .  S
C1426     Br1430   1.930       .  S
C1435      C1436   1.420       .  A
C1435      C1440   1.415       .  A
C1436      C1437   1.402       .  A
C1436     Br1448   1.920       .  S
C1437      C1438   1.404       .  A
C1437     Br1452   1.935       .  S
C1438      C1441   1.508       .  S
C1438      C1439   1.419       .  A
C1439      C1440   1.427       .  A
C1439     Br1447   1.925       .  S
C1440     Br1451   1.925       .  S
C1441      C1442   1.412       .  A
C1441      C1446   1.417       .  A
C1442      C1443   1.418       .  A
C1442     Br1453   1.927       .  S
C1443      C1444   1.417       .  A
C1443     Br1449   1.927       .  S
C1444      C1445   1.414       .  A
C1445      C1446   1.413       .  A
C1445     Br1454   1.931       .  S
C1446     Br1450   1.933       .  S
C1455      C1456   1.427       .  A
C1455      C1460   1.427       .  A
C1456      C1457   1.412       .  A
C1456     Br1468   1.932       .  S
C1457      C1458   1.410       .  A
C1457     Br1472   1.935       .  S
C1458      C1461   1.514       .  S
C1458      C1459   1.413       .  A
C1459      C1460   1.421       .  A
C1459     Br1467   1.931       .  S
C1460     Br1471   1.931       .  S
C1461      C1462   1.409       .  A
C1461      C1466   1.414       .  A
C1462      C1463   1.412       .  A
C1462     Br1473   1.936       .  S
C1463      C1464   1.429       .  A
C1463     Br1469   1.934       .  S
C1464      C1465   1.426       .  A
C1465      C1466   1.423       .  A
C1465     Br1474   1.930       .  S
C1466     Br1470   1.931       .  S
C1475      C1476   1.407       .  A
C1475      C1480   1.412       .  A
C1476      C1477   1.413       .  A
C1476     Br1488   1.913       .  S
C1477      C1478   1.413       .  A
C1477     Br1492   1.929       .  S
C1478      C1481   1.500       .  S
C1478      C1479   1.410       .  A
C1479      C1480   1.411       .  A
C1479     Br1487   1.929       .  S
C1480     Br1491   1.923       .  S
C1481      C1482   1.411       .  A
C1481      C1486   1.411       .  A
C1482      C1483   1.413       .  A
C1482     Br1493   1.929       .  S
C1483      C1484   1.414       .  A
C1483     Br1489   1.929       .  S
C1484      C1485   1.414       .  A
C1485      C1486   1.414       .  A
C1485     Br1494   1.926       .  S
C1486     Br1490   1.930       .  S
C1495      C1496   1.412       .  A
C1495      C1500   1.409       .  A
C1496      C1497   1.410       .  A
C1496     Br1508   1.926       .  S
C1497      C1498   1.410       .  A
C1497     Br1512   1.929       .  S
C1498      C1501   1.489       .  S
C1498      C1499   1.409       .  A
C1499      C1500   1.405       .  A
C1499     Br1507   1.933       .  S
C1500     Br1511   1.916       .  S
C1501      C1502   1.410       .  A
C1501      C1506   1.411       .  A
C1502      C1503   1.407       .  A
C1502     Br1513   1.931       .  S
C1503      C1504   1.413       .  A
C1503     Br1509   1.931       .  S
C1504      C1505   1.414       .  A
C1505      C1506   1.410       .  A
C1505     Br1514   1.931       .  S
C1506     Br1510   1.931       .  S
C1515      C1516   1.413       .  A
C1515      C1520   1.416       .  A
C1516      C1517   1.414       .  A
C1516     Br1528   1.928       .  S
C1517      C1518   1.413       .  A
C1517     Br1532   1.929       .  S
C1518      C1521   1.500       .  S
C1518      C1519   1.410       .  A
C1519      C1520   1.413       .  A
C1519     Br1527   1.928       .  S
C1520     Br1531   1.930       .  S
C1521      C1522   1.412       .  A
C1521      C1526   1.409       .  A
C1522      C1523   1.414       .  A
C1522     Br1533   1.927       .  S
C1523      C1524   1.410       .  A
C1523     Br1529   1.922       .  S
C1524      C1525   1.415       .  A
C1525      C1526   1.413       .  A
C1525     Br1534   1.924       .  S
C1526     Br1530   1.929       .  S
C1535      C1536   1.409       .  A
C1535      C1540   1.409       .  A
C1536      C1537   1.404       .  A
C1536     Br1548   1.930       .  S
C1537      C1538   1.409       .  A
C1537     Br1552   1.925       .  S
C1538      C1541   1.489       .  S
C1538      C1539   1.410       .  A
C1539      C1540   1.411       .  A
C1539     Br1547   1.926       .  S
C1540     Br1551   1.926       .  S
C1541      C1542   1.407       .  A
C1541      C1546   1.405       .  A
C1542      C1543   1.411       .  A
C1542     Br1553   1.932       .  S
C1543      C1544   1.421       .  A
C1543     Br1549   1.930       .  S
C1544      C1545   1.422       .  A
C1545      C1546   1.410       .  A
C1545     Br1554   1.933       .  S
C1546     Br1550   1.929       .  S
C1555      C1556   1.412       .  A
C1555      C1560   1.413       .  A
C1556      C1557   1.418       .  A
C1556     Br1568   1.929       .  S
C1557      C1558   1.415       .  A
C1557     Br1572   1.926       .  S
C1558      C1561   1.510       .  S
C1558      C1559   1.413       .  A
C1559      C1560   1.413       .  A
C1559     Br1567   1.928       .  S
C1560     Br1571   1.931       .  S
C1561      C1562   1.410       .  A
C1561      C1566   1.406       .  A
C1562      C1563   1.422       .  A
C1562     Br1573   1.929       .  S
C1563      C1564   1.426       .  A
C1563     Br1569   1.930       .  S
C1564      C1565   1.427       .  A
C1565      C1566   1.418       .  A
C1565     Br1574   1.921       .  S
C1566     Br1570   1.932       .  S
C1575      C1576   1.430       .  A
C1575      C1580   1.418       .  A
C1576      C1577   1.411       .  A
C1576     Br1588   1.923       .  S
C1577      C1578   1.403       .  A
C1577     Br1592   1.939       .  S
C1578      C1581   1.507       .  S
C1578      C1579   1.413       .  A
C1579      C1580   1.423       .  A
C1579     Br1587   1.925       .  S
C1580     Br1591   1.927       .  S
C1581      C1582   1.413       .  A
C1581      C1586   1.412       .  A
C1582      C1583   1.411       .  A
C1582     Br1593   1.919       .  S
C1583      C1584   1.408       .  A
C1583     Br1589   1.931       .  S
C1584      C1585   1.414       .  A
C1585      C1586   1.418       .  A
C1585     Br1594   1.927       .  S
C1586     Br1590   1.926       .  S
C1595      C1596   1.412       .  A
C1595      C1600   1.426       .  A
C1596      C1597   1.418       .  A
C1596     Br1608   1.924       .  S
C1597      C1598   1.412       .  A
C1597     Br1612   1.927       .  S
C1598      C1601   1.502       .  S
C1598      C1599   1.407       .  A
C1599      C1600   1.410       .  A
C1599     Br1607   1.935       .  S
C1600     Br1611   1.932       .  S
C1601      C1602   1.411       .  A
C1601      C1606   1.414       .  A
C1602      C1603   1.415       .  A
C1602     Br1613   1.929       .  S
C1603      C1604   1.415       .  A
C1603     Br1609   1.929       .  S
C1604      C1605   1.411       .  A
C1605      C1606   1.411       .  A
C1605     Br1614   1.932       .  S
C1606     Br1610   1.927       .  S
C1615      C1616   1.412       .  A
C1615      C1620   1.413       .  A
C1616      C1617   1.413       .  A
C1616     Br1628   1.926       .  S
C1617      C1618   1.412       .  A
C1617     Br1632   1.929       .  S
C1618      C1621   1.499       .  S
C1618      C1619   1.413       .  A
C1619      C1620   1.410       .  A
C1619     Br1627   1.927       .  S
C1620     Br1631   1.932       .  S
C1621      C1622   1.412       .  A
C1621      C1626   1.409       .  A
C1622      C1623   1.415       .  A
C1622     Br1633   1.927       .  S
C1623      C1624   1.416       .  A
C1623     Br1629   1.930       .  S
C1624      C1625   1.419       .  A
C1625      C1626   1.409       .  A
C1625     Br1634   1.927       .  S
C1626     Br1630   1.933       .  S
C1635      C1636   1.425       .  A
C1635      C1640   1.421       .  A
C1636      C1637   1.416       .  A
C1636     Br1648   1.927       .  S
C1637      C1638   1.408       .  A
C1637     Br1652   1.933       .  S
C1638      C1641   1.513       .  S
C1638      C1639   1.413       .  A
C1639      C1640   1.424       .  A
C1639     Br1647   1.926       .  S
C1640     Br1651   1.929       .  S
C1641      C1642   1.412       .  A
C1641      C1646   1.414       .  A
C1642      C1643   1.412       .  A
C1642     Br1653   1.918       .  S
C1643      C1644   1.409       .  A
C1643     Br1649   1.929       .  S
C1644      C1645   1.416       .  A
C1645      C1646   1.421       .  A
C1645     Br1654   1.926       .  S
C1646     Br1650   1.927       .  S
C1655      C1656   1.425       .  A
C1655      C1660   1.417       .  A
C1656      C1657   1.410       .  A
C1656     Br1668   1.930       .  S
C1657      C1658   1.407       .  A
C1657     Br1672   1.936       .  S
C1658      C1661   1.502       .  S
C1658      C1659   1.411       .  A
C1659      C1660   1.418       .  A
C1659     Br1667   1.927       .  S
C1660     Br1671   1.929       .  S
C1661      C1662   1.412       .  A
C1661      C1666   1.410       .  A
C1662      C1663   1.414       .  A
C1662     Br1673   1.929       .  S
C1663      C1664   1.413       .  A
C1663     Br1669   1.925       .  S
C1664      C1665   1.417       .  A
C1665      C1666   1.415       .  A
C1665     Br1674   1.925       .  S
C1666     Br1670   1.928       .  S
C1675      C1676   1.422       .  A
C1675      C1680   1.413       .  A
C1676      C1677   1.407       .  A
C1676     Br1688   1.935       .  S
C1677      C1678   1.407       .  A
C1677     Br1692   1.935       .  S
C1678      C1681   1.494       .  S
C1678      C1679   1.411       .  A
C1679      C1680   1.414       .  A
C1679     Br1687   1.929       .  S
C1680     Br1691   1.924       .  S
C1681      C1682   1.412       .  A
C1681      C1686   1.409       .  A
C1682      C1683   1.409       .  A
C1682     Br1693   1.927       .  S
C1683      C1684   1.409       .  A
C1683     Br1689   1.924       .  S
C1684      C1685   1.413       .  A
C1685      C1686   1.411       .  A
C1685     Br1694   1.927       .  S
C1686     Br1690   1.928       .  S
C1695      C1696   1.420       .  A
C1695      C1700   1.419       .  A
C1696      C1697   1.423       .  A
C1696     Br1708   1.925       .  S
C1697      C1698   1.414       .  A
C1697     Br1712   1.927       .  S
C1698      C1701   1.513       .  S
C1698      C1699   1.408       .  A
C1699      C1700   1.415       .  A
C1699     Br1707   1.931       .  S
C1700     Br1711   1.917       .  S
C1701      C1702   1.416       .  A
C1701      C1706   1.414       .  A
C1702      C1703   1.415       .  A
C1702     Br1713   1.924       .  S
C1703      C1704   1.410       .  A
C1703     Br1709   1.930       .  S
C1704      C1705   1.415       .  A
C1705      C1706   1.420       .  A
C1705     Br1714   1.928       .  S
C1706     Br1710   1.927       .  S
C1715      C1716   1.406       .  A
C1715      C1720   1.404       .  A
C1716      C1717   1.415       .  A
C1716     Br1728   1.927       .  S
C1717      C1718   1.415       .  A
C1717     Br1732   1.924       .  S
C1718      C1721   1.499       .  S
C1718      C1719   1.410       .  A
C1719      C1720   1.409       .  A
C1719     Br1727   1.928       .  S
C1720     Br1731   1.911       .  S
C1721      C1722   1.412       .  A
C1721      C1726   1.412       .  A
C1722      C1723   1.414       .  A
C1722     Br1733   1.927       .  S
C1723      C1724   1.411       .  A
C1723     Br1729   1.927       .  S
C1724      C1725   1.411       .  A
C1725      C1726   1.413       .  A
C1725     Br1734   1.928       .  S
C1726     Br1730   1.930       .  S
C1735      C1736   1.427       .  A
C1735      C1740   1.427       .  A
C1736      C1737   1.423       .  A
C1736     Br1748   1.930       .  S
C1737      C1738   1.413       .  A
C1737     Br1752   1.932       .  S
C1738      C1741   1.516       .  S
C1738      C1739   1.409       .  A
C1739      C1740   1.420       .  A
C1739     Br1747   1.933       .  S
C1740     Br1751   1.921       .  S
C1741      C1742   1.414       .  A
C1741      C1746   1.419       .  A
C1742      C1743   1.416       .  A
C1742     Br1753   1.929       .  S
C1743      C1744   1.412       .  A
C1743     Br1749   1.928       .  S
C1744      C1745   1.408       .  A
C1745      C1746   1.417       .  A
C1745     Br1754   1.930       .  S
C1746     Br1750   1.920       .  S
C1755      C1756   1.412       .  A
C1755      C1760   1.411       .  A
C1756      C1757   1.418       .  A
C1756     Br1768   1.927       .  S
C1757      C1758   1.415       .  A
C1757     Br1772   1.927       .  S
C1758      C1761   1.509       .  S
C1758      C1759   1.413       .  A
C1759      C1760   1.414       .  A
C1759     Br1767   1.924       .  S
C1760     Br1771   1.929       .  S
C1761      C1762   1.405       .  A
C1761      C1766   1.414       .  A
C1762      C1763   1.413       .  A
C1762     Br1773   1.929       .  S
C1763      C1764   1.425       .  A
C1763     Br1769   1.928       .  S
C1764      C1765   1.417       .  A
C1765      C1766   1.424       .  A
C1765     Br1774   1.929       .  S
C1766     Br1770   1.925       .  S
C1775      C1776   1.416       .  A
C1775      C1780   1.422       .  A
C1776      C1777   1.411       .  A
C1776     Br1788   1.931       .  S
C1777      C1778   1.410       .  A
C1777     Br1792   1.929       .  S
C1778      C1781   1.488       .  S
C1778      C1779   1.404       .  A
C1779      C1780   1.403       .  A
C1779     Br1787   1.934       .  S
C1780     Br1791   1.931       .  S
C1781      C1782   1.413       .  A
C1781      C1786   1.411       .  A
C1782      C1783   1.401       .  A
C1782     Br1793   1.923       .  S
C1783      C1784   1.406       .  A
C1783     Br1789   1.936       .  S
C1784      C1785   1.408       .  A
C1785      C1786   1.410       .  A
C1785     Br1794   1.925       .  S
C1786     Br1790   1.928       .  S
C1795      C1796   1.412       .  A
C1795      C1800   1.414       .  A
C1796      C1797   1.417       .  A
C1796     Br1808   1.929       .  S
C1797      C1798   1.414       .  A
C1797     Br1812   1.924       .  S
C1798      C1801   1.516       .  S
C1798      C1799   1.415       .  A
C1799      C1800   1.421       .  A
C1799     Br1807   1.927       .  S
C1800     Br1811   1.928       .  S
C1801      C1802   1.411       .  A
C1801      C1806   1.410       .  A
C1802      C1803   1.424       .  A
C1802     Br1813   1.925       .  S
C1803      C1804   1.420       .  A
C1803     Br1809   1.923       .  S
C1804      C1805   1.420       .  A
C1805      C1806   1.419       .  A
C1805     Br1814   1.924       .  S
C1806     Br1810   1.928       .  S
C1815      C1816   1.423       .  A
C1815      C1820   1.422       .  A
C1816      C1817   1.421       .  A
C1816     Br1828   1.925       .  S
C1817      C1818   1.408       .  A
C1817     Br1832   1.923       .  S
C1818      C1821   1.512       .  S
C1818      C1819   1.409       .  A
C1819      C1820   1.419       .  A
C1819     Br1827   1.927       .  S
C1820     Br1831   1.928       .  S
C1821      C1822   1.414       .  A
C1821      C1826   1.413       .  A
C1822      C1823   1.419       .  A
C1822     Br1833   1.927       .  S
C1823      C1824   1.414       .  A
C1823     Br1829   1.928       .  S
C1824      C1825   1.411       .  A
C1825      C1826   1.415       .  A
C1825     Br1834   1.928       .  S
C1826     Br1830   1.924       .  S
C1835      C1836   1.410       .  A
C1835      C1840   1.416       .  A
C1836      C1837   1.418       .  A
C1836     Br1848   1.931       .  S
C1837      C1838   1.422       .  A
C1837     Br1852   1.925       .  S
C1838      C1841   1.528       .  S
C1838      C1839   1.419       .  A
C1839      C1840   1.424       .  A
C1839     Br1847   1.929       .  S
C1840     Br1851   1.927       .  S
C1841      C1842   1.407       .  A
C1841      C1846   1.417       .  A
C1842      C1843   1.417       .  A
C1842     Br1853   1.933       .  S
C1843      C1844   1.425       .  A
C1843     Br1849   1.907       .  S
C1844      C1845   1.428       .  A
C1845      C1846   1.429       .  A
C1845     Br1854   1.930       .  S
C1846     Br1850   1.928       .  S
