geometry optimzed in LAMMPS
_audit_creation_date              2020-11-30 
_audit_creation_method            'lammps2cif' 
_symmetry_space_group_name_H-M    'P1' 
_symmetry_Int_Tables_number       1 
_symmetry_cell_setting            triclinic 
loop_ 
_symmetry_equiv_pos_as_xyz 
  x,y,z 
_cell_length_a                    45.57522335 
_cell_length_b                    25.239300670436354 
_cell_length_c                    39.155190045665194 
_cell_angle_alpha                 91.24550649216825 
_cell_angle_beta                  90.0767531673817 
_cell_angle_gamma                 90.49952767998404 
loop_ 
_atom_site_label 
_atom_site_type_symbol 
_atom_site_fract_x 
_atom_site_fract_y 
_atom_site_fract_z 
_atom_site_charge 
C1          C  0.64137856  0.12148840  0.09851895     0.79800
N2          N  0.64143045  0.07400125  0.11397440    -0.78500
C3          C  0.66473599  0.05945537  0.13306717     0.82300
N4          N  0.68829419  0.09272389  0.13656911    -0.78400
C5          C  0.68774718  0.14130790  0.12206651     0.82400
N6          N  0.66431967  0.15541966  0.10305423    -0.80200
C7          C  0.63643375  0.44496999  0.18783090     0.79800
N8          N  0.65966738  0.41176369  0.18644925    -0.78500
C9          C  0.68458183  0.42615587  0.17005180     0.82300
N10         N  0.68649187  0.47441624  0.15531859    -0.78400
C11         C  0.66282141  0.50682126  0.15548488     0.82400
N12         N  0.63788806  0.49183862  0.17164099    -0.80200
C13         C  0.26265916  0.11640797  0.18330471     0.79800
N14         N  0.23865051  0.14729943  0.17988573    -0.78500
C15         C  0.21352877  0.12723297  0.16609429     0.82300
N16         N  0.21237085  0.07589991  0.15511834    -0.78400
C17         C  0.23671651  0.04551255  0.15658837     0.82400
N18         N  0.26172978  0.06575668  0.17074468    -0.80200
C19         C  0.25934190  0.42372466  0.10645628     0.79800
N20         N  0.23610470  0.39107157  0.11199948    -0.78500
C21         C  0.21293639  0.40845902  0.13070478     0.82300
N22         N  0.21281703  0.45898981  0.14346505    -0.78400
C23         C  0.23662033  0.49092250  0.13925840     0.82400
N24         N  0.25975639  0.47322646  0.12066241    -0.80200
In25       In  0.44958463  0.27785310  0.39682922     1.36900
C26         C  0.48575093  0.32595830  0.35518515     0.77200
O27         O  0.43516674  0.20667271  0.36537681    -0.61300
O28         O  0.41742626  0.28235458  0.35490186    -0.52200
C29         C  0.48582553  0.23982578  0.44251799     0.69800
O30         O  0.48453836  0.28833490  0.43571413    -0.47000
C31         C  0.40986629  0.31473195  0.43994245     0.74500
O32         O  0.48834017  0.27799222  0.36295671    -0.58900
O33         O  0.41060873  0.26690764  0.43001680    -0.49000
O34         O  0.46488074  0.35013842  0.36968570    -0.55300
C35         C  0.41839221  0.23374412  0.34696267     0.84700
O36         O  0.46849398  0.21005083  0.42548026    -0.57200
O37         O  0.42930837  0.34409379  0.42711257    -0.60500
C38         C  0.76037893  0.19966261  0.10466557     0.79800
N39         N  0.73769453  0.16462371  0.10638457    -0.78500
C40         C  0.71312197  0.17709713  0.12417653     0.82300
N41         N  0.71103616  0.22530356  0.14023061    -0.78400
C42         C  0.73426029  0.25952682  0.13998699     0.82400
N43         N  0.75880794  0.24650856  0.12221915    -0.80200
C44         C  0.75731149  0.37549205  0.19280670     0.79800
N45         N  0.73390257  0.40779528  0.18968029    -0.78500
C46         C  0.71011515  0.39171964  0.17130665     0.82300
N47         N  0.70952249  0.34266999  0.15616121    -0.78400
C48         C  0.73329081  0.31068913  0.15845740     0.82400
N49         N  0.75702332  0.32711977  0.17697823    -0.80200
C50         C  0.13672033  0.36304053  0.11859257     0.79800
N51         N  0.16111918  0.39410157  0.11971849    -0.78500
C52         C  0.18653438  0.37551638  0.13267584     0.82300
N53         N  0.18778656  0.32501677  0.14408471    -0.78400
C54         C  0.16309917  0.29430718  0.14397359     0.82400
N55         N  0.13781790  0.31333056  0.13091330    -0.80200
C56         C  0.13709667  0.16846848  0.18008582     0.79800
N57         N  0.16171347  0.13871161  0.17814436    -0.78500
C58         C  0.18707716  0.15941600  0.16600042     0.82300
N59         N  0.18806395  0.21059360  0.15588129    -0.78400
C60         C  0.16328500  0.24015032  0.15677406     0.82400
N61         N  0.13803181  0.21907358  0.16913549    -0.80200
In62       In  0.95173530  0.03360214  0.40086391     1.36900
C63         C  0.91914037  0.08314136  0.44714564     0.77200
O64         O  0.97067182  0.46276802  0.43166208    -0.61300
O65         O  0.99185975  0.03868707  0.43327309    -0.52200
C66         C  0.91061275  0.49139999  0.36359365     0.69800
O67         O  0.91147786  0.04218617  0.36968663    -0.47000
C68         C  0.98430679  0.06822583  0.35004054     0.74500
O69         O  0.92116442  0.03337461  0.44504545    -0.58900
O70         O  0.97882910  0.01981964  0.35444365    -0.49000
O71         O  0.93456991  0.10795123  0.42584604    -0.55300
C72         C  0.99139506  0.48961816  0.44504574     0.84700
O73         O  0.92976479  0.46227888  0.37692438    -0.57200
O74         O  0.97397033  0.09929353  0.37266823    -0.60500
C75         C  0.05987395  0.15356452  0.21580662    -0.11800
C76         C  0.06563359  0.12343168  0.24466620     0.14800
C77         C  0.09401434  0.10327824  0.24974931     0.01700
C78         C  0.11642478  0.11637867  0.22715055    -0.16100
C79         C  0.11125042  0.14883829  0.19909316    -0.11000
C80         C  0.08226570  0.16596697  0.19273446     0.08400
C81         C  0.04213835  0.11482198  0.26987518     0.09400
S82         S  0.10342469  0.06299663  0.28561788    -0.25300
H83         H  0.13841052  0.10272570  0.23247181     0.19700
S84         S  0.07231100  0.20300860  0.15566332    -0.31000
H85         H  0.03787939  0.16801767  0.21148366     0.10000
C86         C  0.04144988  0.14392097  0.30098657     0.03200
C87         C  0.02126687  0.12965002  0.32624959    -0.13300
C88         C  0.00196998  0.08660671  0.32099407    -0.09000
C89         C  0.00145841  0.05989562  0.28882086     0.06600
C90         C  0.02166729  0.07408093  0.26373265    -0.14000
S91         S  0.06692181  0.19808202  0.30881867    -0.31000
H92         H  0.02137824  0.15054858  0.35069350     0.10900
S93         S  0.97553065  0.00773321  0.27804743    -0.28100
H94         H  0.02197148  0.05232395  0.23956239     0.08100
H95         H  0.09276522  0.17827055  0.13380692     0.26500
H96         H  0.05763434  0.21056918  0.34225818     0.21300
H97         H  0.95206842  0.03024993  0.29646216     0.26700
H98         H  0.07600334  0.03763315  0.28845251     0.15500
C99         C  0.05755291  0.46970601  0.50218977    -0.11800
C100        C  0.04904966  0.42821591  0.02311307     0.14800
C101        C  0.02029745  0.40784498  0.01842488     0.01700
C102        C  0.00321735  0.42581195  0.99135579    -0.16100
C103        C  0.01153520  0.46809918  0.47077187    -0.11000
C104        C  0.04065292  0.48701522  0.47488681     0.08400
C105        C  0.06908323  0.40934533  0.04989750     0.09400
S106        S  0.00368551  0.36045751  0.04656903    -0.25300
H107        H  0.98100012  0.41074758  0.98830853     0.19700
S108        S  0.05801123  0.53157156  0.44557011    -0.31000
H109        H  0.07995325  0.48400097  0.50499231     0.10000
C110        C  0.08021973  0.35743002  0.04882849     0.03200
C111        C  0.10061679  0.34248304  0.07346874    -0.13300
C112        C  0.11125525  0.37900640  0.09816827    -0.09000
C113        C  0.10003760  0.43100235  0.09926198     0.06600
C114        C  0.07900353  0.44548773  0.07521980    -0.14000
S115        S  0.07060797  0.31163189  0.01438272    -0.31000
H116        H  0.10977276  0.30305132  0.07212407     0.10900
S117        S  0.11181766  0.48068012  0.13028691    -0.28100
H118        H  0.07065097  0.48557287  0.07582790     0.08100
H119        H  0.04464051  0.50907085  0.41619439     0.26500
H120        H  0.08874140  0.26987032  0.02435098     0.21300
H121        H  0.11800753  0.44488012  0.15631263     0.26700
H122        H  0.02071798  0.37346262  0.07553987     0.15500
C123        C  0.81663234  0.45453822  0.23943772    -0.11800
C124        C  0.82311773  0.42053262  0.26624279     0.14800
C125        C  0.80847830  0.37116720  0.26811929     0.01700
C126        C  0.78822168  0.35635123  0.24276865    -0.16100
C127        C  0.78134490  0.39066523  0.21628072    -0.11000
C128        C  0.79577168  0.44016374  0.21445449     0.08400
C129        C  0.84558054  0.43731068  0.29156207     0.09400
S130        S  0.81417724  0.32594755  0.30253824    -0.25300
H131        H  0.77679773  0.31866002  0.24452986     0.19700
S132        S  0.78852087  0.48403694  0.17962697    -0.31000
H133        H  0.82811298  0.49217485  0.23808618     0.10000
C134        C  0.87362259  0.41425823  0.29188312     0.03200
C135        C  0.89409257  0.43088091  0.31675430    -0.13300
C136        C  0.88717304  0.47072492  0.34089836    -0.09000
C137        C  0.85887255  0.49328167  0.34068651     0.06600
C138        C  0.83853300  0.47671821  0.31584146    -0.14000
S139        S  0.88374955  0.36562612  0.25958678    -0.31000
H140        H  0.91594678  0.41436623  0.31656633     0.10900
S141        S  0.84709403  0.54223542  0.37190191    -0.28100
H142        H  0.81685783  0.49406640  0.31571851     0.08100
H143        H  0.80723360  0.52554703  0.19075695     0.26500
H144        H  0.91170284  0.35464206  0.27280185     0.21300
H145        H  0.86299433  0.52127689  0.39924783     0.26700
H146        H  0.82062293  0.36476541  0.32778484     0.15500
C147        C  0.80816931  0.15110438  0.03107468    -0.11800
C148        C  0.83605366  0.16715632  0.04244530     0.14800
C149        C  0.83898496  0.19539124  0.07376815     0.01700
C150        C  0.81394431  0.20553195  0.09347312    -0.16100
C151        C  0.78595654  0.18846872  0.08248940    -0.11000
C152        C  0.78312599  0.16198952  0.05036602     0.08400
C153        C  0.86140587  0.15035214  0.02166270     0.09400
S154        S  0.87389848  0.21819127  0.09052748    -0.25300
H155        H  0.81639966  0.22635700  0.11781447     0.19700
S156        S  0.74834008  0.14284715  0.03162629    -0.31000
H157        H  0.80592983  0.12982948  0.00684502     0.10000
C158        C  0.87607357  0.10300164  0.02860818     0.03200
C159        C  0.89661401  0.08325213  0.00514573    -0.13300
C160        C  0.89971100  0.10916770  0.47244973    -0.09000
C161        C  0.88484774  0.15689224  0.46593670     0.06600
C162        C  0.86462064  0.17654914  0.48978726    -0.14000
S163        S  0.86757085  0.06651865  0.06659563    -0.31000
H164        H  0.90740480  0.04612940  0.01005633     0.10900
S165        S  0.88889895  0.19232772  0.42675315    -0.28100
H166        H  0.85238712  0.21195929  0.48417563     0.08100
H167        H  0.73401202  0.18980243  0.04170166     0.26500
H168        H  0.88817588  0.02600088  0.06132463     0.21300
H169        H  0.88602919  0.14674893  0.40561841     0.26700
H170        H  0.88939502  0.21762269  0.05955600     0.15500
C171        C  0.37374387  0.38451123  0.00821305    -0.11800
C172        C  0.34669546  0.35774707  0.00883946     0.14800
C173        C  0.34051897  0.31780335  0.98403287     0.01700
C174        C  0.36051884  0.30713242  0.46519318    -0.16100
C175        C  0.38767999  0.33380728  0.46452694    -0.11000
C176        C  0.39317577  0.37569171  0.48829387     0.08400
C177        C  0.32501805  0.37410888  0.03481868     0.09400
S178        S  0.30572085  0.28325921  0.98125589    -0.25300
H179        H  0.35593320  0.27530143  0.44688090     0.19700
S180        S  0.42739478  0.41171710  0.49029756    -0.31000
H181        H  0.37838240  0.41553708  0.02707454     0.10000
C182        C  0.31766552  0.34188594  0.06254725     0.03200
C183        C  0.29602995  0.35884699  0.08568031    -0.13300
C184        C  0.28215063  0.40777263  0.08186443    -0.09000
C185        C  0.28979100  0.43998450  0.05407048     0.06600
C186        C  0.31134106  0.42306617  0.03117155    -0.14000
S187        S  0.33625759  0.27995523  0.06885301    -0.31000
H188        H  0.29006934  0.33432073  0.10697239     0.10900
S189        S  0.27186776  0.50164251  0.04518562    -0.28100
H190        H  0.31694571  0.44758264  0.00970549     0.08100
H191        H  0.42365652  0.43290880  0.45764550     0.26500
H192        H  0.32256541  0.26752775  0.09988451     0.21300
H193        H  0.24367311  0.48428868  0.05465743     0.26700
H194        H  0.28850008  0.32497089  0.99422591     0.15500
C195        C  0.31335213  0.19335928  0.24468234    -0.11800
C196        C  0.33966781  0.16592378  0.24023126     0.14800
C197        C  0.34100463  0.12377564  0.21613255     0.01700
C198        C  0.31578156  0.10929634  0.19758887    -0.16100
C199        C  0.28900693  0.13603170  0.20241359    -0.11000
C200        C  0.28809047  0.17890483  0.22651817     0.08400
C201        C  0.36408821  0.17983371  0.26368088     0.09400
S202        S  0.37408699  0.08688686  0.20802883    -0.25300
H203        H  0.31717041  0.07663394  0.17927542     0.19700
S204        S  0.25536376  0.21484630  0.23778059    -0.31000
H205        H  0.31217048  0.22511328  0.26371921     0.10000
C206        C  0.37656875  0.23103091  0.26414954     0.03200
C207        C  0.39496829  0.24659348  0.29118376    -0.13300
C208        C  0.40130296  0.21201026  0.31780254    -0.09000
C209        C  0.39020877  0.15954708  0.31614099     0.06600
C210        C  0.37183346  0.14398221  0.28899483    -0.14000
S211        S  0.36856840  0.27695290  0.23066352    -0.31000
H212        H  0.40401249  0.28641991  0.29195446     0.10900
S213        S  0.39658420  0.11210472  0.34898427    -0.28100
H214        H  0.36204973  0.10468337  0.28872113     0.08100
H215        H  0.23915183  0.16863139  0.24481080     0.26500
H216        H  0.38768995  0.31771239  0.24202725     0.21300
H217        H  0.39036894  0.14783604  0.37605004     0.26700
H218        H  0.39375000  0.12803365  0.21718156     0.15500
C219        C  0.51659210  0.40162509  0.28052594    -0.11800
C220        C  0.54584052  0.38493043  0.28122181     0.14800
C221        C  0.55553808  0.35261619  0.30786735     0.01700
C222        C  0.53543974  0.33501232  0.33195356    -0.16100
C223        C  0.50603211  0.35067797  0.33101538    -0.11000
C224        C  0.49662827  0.38523185  0.30536563     0.08400
C225        C  0.56593266  0.40139891  0.25393487     0.09400
S226        S  0.59312711  0.33188043  0.31234818    -0.25300
H227        H  0.54285981  0.30883343  0.35172093     0.19700
S228        S  0.45908412  0.40569781  0.30127489    -0.31000
H229        H  0.50921023  0.42679415  0.26021351     0.10000
C230        C  0.57705598  0.36451432  0.22983807     0.03200
C231        C  0.59959166  0.38013255  0.20782760    -0.13300
C232        C  0.61097556  0.43198584  0.20934225    -0.09000
C233        C  0.59891882  0.46928149  0.23281660     0.06600
C234        C  0.57621043  0.45376944  0.25439252    -0.14000
S235        S  0.56276748  0.29751548  0.22748895    -0.31000
H236        H  0.60867389  0.35179026  0.18967526     0.10900
S237        S  0.61325130  0.53561422  0.23898852    -0.28100
H238        H  0.56775153  0.48183288  0.27318797     0.08100
H239        H  0.45864652  0.43064324  0.33374441     0.26500
H240        H  0.58167070  0.27885173  0.20162160     0.21300
H241        H  0.64287228  0.52046003  0.23751565     0.26700
H242        H  0.60592445  0.37759954  0.29865016     0.15500
C243        C  0.58809815  0.12054653  0.02444340    -0.11800
C244        C  0.57217609  0.16664079  0.03174761     0.14800
C245        C  0.57827098  0.19656139  0.06186004     0.01700
C246        C  0.60108540  0.18111644  0.08319843    -0.16100
C247        C  0.61718779  0.13533428  0.07575052    -0.11000
C248        C  0.61057192  0.10444862  0.04623151     0.08400
C249        C  0.55074314  0.18436700  0.00631589     0.09400
S250        S  0.55804903  0.25504515  0.07418830    -0.25300
H251        H  0.60613970  0.20463729  0.10597528     0.19700
S252        S  0.63198330  0.04672128  0.03497766    -0.31000
H253        H  0.58341071  0.09818131  0.00112703     0.10000
C254        C  0.55489127  0.23105813  0.49467849     0.03200
C255        C  0.53381903  0.24704398  0.47115900    -0.13300
C256        C  0.50674264  0.22041046  0.46795474    -0.09000
C257        C  0.50238263  0.17457321  0.98031969     0.06600
C258        C  0.52374330  0.15769281  0.00324454    -0.14000
S259        S  0.58993235  0.26504537  0.49720858    -0.31000
H260        H  0.53862274  0.28002524  0.45478020     0.10900
S261        S  0.46727730  0.14119785  0.98071831    -0.28300
H262        H  0.51898513  0.12459846  0.01958271     0.08100
H263        H  0.61543095  0.03081595  0.00612535     0.26500
H264        H  0.58313312  0.30573892  0.47460057     0.21300
H265        H  0.44898701  0.18887405  0.48585319     0.26700
H266        H  0.53152763  0.23981172  0.05830014     0.15500
C267        C  0.64046053  0.12519441  0.60618522     0.79800
N268        N  0.64102689  0.07777143  0.62166362    -0.78500
C269        C  0.66501999  0.06306843  0.63950066     0.82300
N270        N  0.68878401  0.09608479  0.64165161    -0.78400
C271        C  0.68775416  0.14463977  0.62714420     0.82400
N272        N  0.66363137  0.15890446  0.60940236    -0.80200
C273        C  0.63796247  0.45025709  0.68366638     0.79800
N274        N  0.66129852  0.41728893  0.68301970    -0.78500
C275        C  0.68671248  0.43221164  0.66790113     0.82300
N276        N  0.68897064  0.48073995  0.65353110    -0.78400
C277        C  0.66522268  0.51298685  0.65291291     0.82400
N278        N  0.63982326  0.49747855  0.66791624    -0.80200
C279        C  0.26269304  0.12240669  0.67655442     0.79800
N280        N  0.23836858  0.15282327  0.67462567    -0.78500
C281        C  0.21281710  0.13245483  0.66218697     0.82300
N282        N  0.21152220  0.08120838  0.65102098    -0.78400
C283        C  0.23610307  0.05126569  0.65096753     0.82400
N284        N  0.26153763  0.07184370  0.66384897    -0.80200
C285        C  0.25676724  0.43025288  0.60890790     0.79800
N286        N  0.23349003  0.39777043  0.61446779    -0.78500
C287        C  0.21019852  0.41551882  0.63278724     0.82300
N288        N  0.21002579  0.46626223  0.64522688    -0.78400
C289        C  0.23391772  0.49803060  0.64100954     0.82400
N290        N  0.25714463  0.47994778  0.62275199    -0.80200
In291      In  0.45046117  0.27733790  0.88981358     1.36900
C292        C  0.48636788  0.32606858  0.84815110     0.77200
O293        O  0.43568652  0.20701239  0.85779849    -0.61300
O294        O  0.41837860  0.28326002  0.84788319    -0.52200
C295        C  0.48736116  0.23814457  0.93434824     0.69800
O296        O  0.48603354  0.28683521  0.92805335    -0.47000
C297        C  0.41105203  0.31267641  0.93403271     0.74500
O298        O  0.48891292  0.27792271  0.85549796    -0.58900
O299        O  0.41165903  0.26525913  0.92325694    -0.49000
O300        O  0.46569729  0.35016444  0.86313673    -0.55300
C301        C  0.41917343  0.23479298  0.83950523     0.84700
O302        O  0.46974387  0.20882186  0.91738144    -0.57200
O303        O  0.43041065  0.34247419  0.92142986    -0.60500
C304        C  0.76004303  0.20123546  0.60608404     0.79800
N305        N  0.73735956  0.16651487  0.60933370    -0.78500
C306        C  0.71327563  0.18013470  0.62769237     0.82300
N307        N  0.71167636  0.22914907  0.64274681    -0.78400
C308        C  0.73493744  0.26310336  0.64098344     0.82400
N309        N  0.75899642  0.24895768  0.62267621    -0.80200
C310        C  0.75915314  0.38070677  0.69153814     0.79800
N311        N  0.73603792  0.41358192  0.68777528    -0.78500
C312        C  0.71210907  0.39742274  0.66964580     0.82300
N313        N  0.71105633  0.34770511  0.65549645    -0.78400
C314        C  0.73451127  0.31514687  0.65839295     0.82400
N315        N  0.75839135  0.33168029  0.67659305    -0.80200
C316        C  0.13410728  0.36901558  0.62107150     0.79800
N317        N  0.15828913  0.40065390  0.62242619    -0.78500
C318        C  0.18393019  0.38226924  0.63492203     0.82300
N319        N  0.18566586  0.33135637  0.64547654    -0.78400
C320        C  0.16123399  0.30003437  0.64515325     0.82400
N321        N  0.13569798  0.31891001  0.63268211    -0.80200
C322        C  0.13659885  0.17229000  0.67962478     0.79800
N323        N  0.16123636  0.14280870  0.67629155    -0.78500
C324        C  0.18622946  0.16432882  0.66367171     0.82300
N325        N  0.18680993  0.21603282  0.65457072    -0.78400
C326        C  0.16198452  0.24532308  0.65692099     0.82400
N327        N  0.13712915  0.22340319  0.66966583    -0.80200
In328      In  0.95516507  0.03377372  0.90387093     1.36900
C329        C  0.92242113  0.08380815  0.94974921     0.77200
O330        O  0.97271031  0.46135557  0.93061002    -0.61300
O331        O  0.99504570  0.03829372  0.93684186    -0.52200
C332        C  0.91183084  0.49394601  0.86415733     0.69800
O333        O  0.91483964  0.04265926  0.87287313    -0.47000
C334        C  0.98747011  0.06864965  0.85292110     0.74500
O335        O  0.92409112  0.03400407  0.94749142    -0.58900
O336        O  0.98202155  0.02019832  0.85719442    -0.49000
O337        O  0.93829704  0.10842007  0.92879537    -0.55300
C338        C  0.99319216  0.48789093  0.94474830     0.84700
O339        O  0.93129134  0.46434859  0.87642155    -0.57200
O340        O  0.97741913  0.09951526  0.87582734    -0.60500
C341        C  0.06029945  0.15623035  0.71747622    -0.11800
C342        C  0.06675261  0.12555215  0.74587994     0.14800
C343        C  0.09523910  0.10525070  0.74986901     0.01700
C344        C  0.11709913  0.11872338  0.72664063    -0.16100
C345        C  0.11124543  0.15178128  0.69907582    -0.11000
C346        C  0.08212488  0.16907205  0.69380835     0.08400
C347        C  0.04384339  0.11644000  0.77171348     0.09400
S348        S  0.10549510  0.06436327  0.78512415    -0.25300
H349        H  0.13921421  0.10500230  0.73112022     0.19700
S350        S  0.07130581  0.20702059  0.65745306    -0.31000
H351        H  0.03821471  0.17080406  0.71399679     0.10000
C352        C  0.04387222  0.14483633  0.80310298     0.03200
C353        C  0.02421750  0.13008699  0.82879182    -0.13300
C354        C  0.00469077  0.08736996  0.82363875    -0.09000
C355        C  0.00337879  0.06151054  0.79121837     0.06600
C356        C  0.02311812  0.07606862  0.76572975    -0.14000
S357        S  0.06955469  0.19873533  0.81071496    -0.31000
H358        H  0.02490684  0.15036695  0.85343693     0.10900
S359        S  0.97692471  0.01014751  0.78059926    -0.28100
H360        H  0.02281951  0.05495567  0.74132432     0.08100
H361        H  0.09140518  0.18313858  0.63476327     0.26500
H362        H  0.06007992  0.21207057  0.84395707     0.21300
H363        H  0.95401119  0.03251291  0.80001660     0.26700
H364        H  0.07814369  0.03898520  0.78865725     0.15500
C365        C  0.05972524  0.46674624  0.00096633    -0.11800
C366        C  0.04636929  0.43313557  0.52535528     0.14800
C367        C  0.01733895  0.41385475  0.52123903     0.01700
C368        C  0.00046499  0.43094112  0.49374544    -0.16100
C369        C  0.01373229  0.46509975  0.96953249    -0.11000
C370        C  0.04257010  0.48509918  0.97419775     0.08400
C371        C  0.06625293  0.41462415  0.55239388     0.09400
S372        S  0.00021621  0.36862916  0.55043150    -0.25300
H373        H  0.97805443  0.41668925  0.49109442     0.19700
S374        S  0.05920859  0.53268964  0.94633305    -0.31000
H375        H  0.08189869  0.48197884  0.00421734     0.10000
C376        C  0.07707187  0.36250097  0.55185930     0.03200
C377        C  0.09749648  0.34783516  0.57654243    -0.13300
C378        C  0.10845174  0.38478160  0.60081389    -0.09000
C379        C  0.09740091  0.43692565  0.60148516     0.06600
C380        C  0.07639045  0.45118486  0.57733753    -0.14000
S381        S  0.06695948  0.31595526  0.51802577    -0.31000
H382        H  0.10642233  0.30822021  0.57551736     0.10900
S383        S  0.10935362  0.48708079  0.63209177    -0.28100
H384        H  0.06823607  0.49140111  0.57755495     0.08100
H385        H  0.04601215  0.51194486  0.91634437     0.26500
H386        H  0.08555502  0.27470679  0.52774317     0.21300
H387        H  0.11536142  0.45170214  0.65841801     0.26700
H388        H  0.01782850  0.38148229  0.57894775     0.15500
C389        C  0.81840621  0.45982689  0.73847619    -0.11800
C390        C  0.82532423  0.42523726  0.76481664     0.14800
C391        C  0.81112544  0.37539361  0.76616042     0.01700
C392        C  0.79070130  0.36092353  0.74091155    -0.16100
C393        C  0.78329150  0.39587918  0.71495526    -0.11000
C394        C  0.79748394  0.44566223  0.71349736     0.08400
C395        C  0.84765845  0.44201554  0.79031686     0.09400
S396        S  0.81762063  0.32900408  0.79973387    -0.25300
H397        H  0.77958592  0.32289386  0.74235166     0.19700
S398        S  0.78989888  0.49021186  0.67913090    -0.31000
H399        H  0.82957101  0.49780839  0.73751079     0.10000
C400        C  0.87593624  0.41991217  0.79033227     0.03200
C401        C  0.89612743  0.43594423  0.81565996    -0.13300
C402        C  0.88872620  0.47433364  0.84058507    -0.09000
C403        C  0.86025483  0.49621894  0.84052049     0.06600
C404        C  0.84017352  0.48018020  0.81523936    -0.14000
S405        S  0.88666493  0.37312718  0.75719106    -0.31000
H406        H  0.91811412  0.42000529  0.81532368     0.10900
S407        S  0.84789740  0.54349298  0.87248219    -0.28100
H408        H  0.81833192  0.49685097  0.81532015     0.08100
H409        H  0.80996984  0.53022291  0.68922754     0.26500
H410        H  0.91472082  0.36256558  0.77026853     0.21300
H411        H  0.86339838  0.52111622  0.89964955     0.26700
H412        H  0.82415993  0.36693812  0.82549270     0.15500
C413        C  0.80583579  0.14958658  0.53155470    -0.11800
C414        C  0.83396557  0.16645635  0.54152532     0.14800
C415        C  0.83770161  0.19584942  0.57228731     0.01700
C416        C  0.81324334  0.20644184  0.59285072    -0.16100
C417        C  0.78500412  0.18880779  0.58322874    -0.11000
C418        C  0.78133133  0.16094117  0.55168478     0.08400
C419        C  0.85880635  0.14950858  0.51994458     0.09400
S420        S  0.87300472  0.21970082  0.58716063    -0.25300
H421        H  0.81634716  0.22826504  0.61673831     0.19700
S422        S  0.74609605  0.14057376  0.53470024    -0.31000
H423        H  0.80297321  0.12737056  0.50775695     0.10000
C424        C  0.87435831  0.10321114  0.52721005     0.03200
C425        C  0.89457108  0.08338017  0.50336517    -0.13300
C426        C  0.90288101  0.11001143  0.97486381    -0.09000
C427        C  0.88894153  0.15878545  0.96873841     0.06600
C428        C  0.86842447  0.17843791  0.99225370    -0.14000
S429        S  0.86740362  0.06808708  0.56613670    -0.31000
H430        H  0.90600513  0.04697586  0.50851097     0.10900
S431        S  0.89451011  0.19569080  0.93038603    -0.28100
H432        H  0.85684608  0.21464899  0.98686402     0.08100
H433        H  0.73192825  0.18792964  0.54426209     0.26500
H434        H  0.88990207  0.03070646  0.56199397     0.21300
H435        H  0.89097970  0.15123880  0.90838432     0.26700
H436        H  0.88673293  0.22123253  0.55509917     0.15500
C437        C  0.37184645  0.38888965  0.51252635    -0.11800
C438        C  0.34480419  0.36212363  0.51307800     0.14800
C439        C  0.33883120  0.32153088  0.48866361     0.01700
C440        C  0.36198592  0.30407574  0.96008733    -0.16100
C441        C  0.38912401  0.33084308  0.95929688    -0.11000
C442        C  0.39483612  0.37202313  0.98351888     0.08400
C443        C  0.32293461  0.37907723  0.53859093     0.09400
S444        S  0.30406298  0.28688630  0.48586716    -0.25300
H445        H  0.35721661  0.27276439  0.94146863     0.19700
S446        S  0.42904992  0.40806339  0.98547240    -0.31000
H447        H  0.37629987  0.42042303  0.53109588     0.10000
C448        C  0.31549309  0.34765243  0.56665786     0.03200
C449        C  0.29365483  0.36510144  0.58933471    -0.13300
C450        C  0.27972921  0.41378198  0.58475036    -0.09000
C451        C  0.28749594  0.44525349  0.55665940     0.06600
C452        C  0.30920717  0.42779705  0.53417053    -0.14000
S453        S  0.33421501  0.28614716  0.57397189    -0.31000
H454        H  0.28757508  0.34116648  0.61086573     0.10900
S455        S  0.26960175  0.50661531  0.54693609    -0.28100
H456        H  0.31492745  0.45169462  0.51245209     0.08100
H457        H  0.42490493  0.43034102  0.95320283     0.26500
H458        H  0.32098175  0.27541951  0.60555063     0.21300
H459        H  0.24137049  0.48959907  0.55650317     0.26700
H460        H  0.28672089  0.32893317  0.49811627     0.15500
C461        C  0.31515982  0.19997107  0.73561711    -0.11800
C462        C  0.34100933  0.17109334  0.73134888     0.14800
C463        C  0.34160370  0.12830863  0.70767273     0.01700
C464        C  0.31604738  0.11442780  0.68957284    -0.16100
C465        C  0.28960958  0.14221752  0.69454397    -0.11000
C466        C  0.28954125  0.18603198  0.71799425     0.08400
C467        C  0.36547409  0.18367916  0.75502918     0.09400
S468        S  0.37407180  0.08957111  0.69977169    -0.25300
H469        H  0.31686120  0.08112264  0.67169590     0.19700
S470        S  0.25747233  0.22382075  0.72929745    -0.31000
H471        H  0.31454754  0.23227100  0.75431314     0.10000
C472        C  0.37874038  0.23424693  0.75577528     0.03200
C473        C  0.39692241  0.24888767  0.78321854    -0.13300
C474        C  0.40226179  0.21397892  0.80995646    -0.09000
C475        C  0.39041284  0.16207749  0.80802745     0.06600
C476        C  0.37226202  0.14744185  0.78048929    -0.14000
S477        S  0.37196182  0.28059052  0.72216819    -0.31000
H478        H  0.40655991  0.28826318  0.78422889     0.10900
S479        S  0.39548078  0.11434113  0.84100901    -0.28100
H480        H  0.36184505  0.10866689  0.78003727     0.08100
H481        H  0.24129707  0.17875519  0.73886478     0.26500
H482        H  0.39162389  0.32027331  0.73386847     0.21300
H483        H  0.38980002  0.15051275  0.86799816     0.26700
H484        H  0.39440839  0.12958688  0.70900452     0.15500
C485        C  0.51675592  0.40261250  0.77357934    -0.11800
C486        C  0.54605962  0.38617093  0.77405758     0.14800
C487        C  0.55589458  0.35347952  0.80044750     0.01700
C488        C  0.53591538  0.33541185  0.82452997    -0.16100
C489        C  0.50649451  0.35104117  0.82390073    -0.11000
C490        C  0.49692346  0.38580757  0.79846020     0.08400
C491        C  0.56619389  0.40390565  0.74712154     0.09400
S492        S  0.59355920  0.33308169  0.80471574    -0.25300
H493        H  0.54345998  0.30902394  0.84411643     0.19700
S494        S  0.45934473  0.40625984  0.79480284    -0.31000
H495        H  0.50926151  0.42810600  0.75349546     0.10000
C496        C  0.57775423  0.36801580  0.72268599     0.03200
C497        C  0.60060869  0.38463600  0.70141286    -0.13300
C498        C  0.61189967  0.43650801  0.70400860    -0.09000
C499        C  0.59933320  0.47286546  0.72770614     0.06600
C500        C  0.57630662  0.45638069  0.74852678    -0.14000
S501        S  0.56369933  0.30095128  0.71906919    -0.31000
H502        H  0.61008134  0.35700190  0.68308530     0.10900
S503        S  0.61344030  0.53905754  0.73521300    -0.28100
H504        H  0.56752405  0.48367706  0.76758161     0.08100
H505        H  0.45912014  0.43086209  0.82738242     0.26500
H506        H  0.58329335  0.28319457  0.69364875     0.21300
H507        H  0.64311089  0.52412694  0.73433572     0.26700
H508        H  0.60617260  0.37952528  0.79179085     0.15500
C509        C  0.58594639  0.12368461  0.53345941    -0.11800
C510        C  0.57021462  0.16993819  0.54090048     0.14800
C511        C  0.57668709  0.19997389  0.57087403     0.01700
C512        C  0.59974403  0.18451573  0.59185727    -0.16100
C513        C  0.61572587  0.13868715  0.58416887    -0.11000
C514        C  0.60867864  0.10762955  0.55486343     0.08400
C515        C  0.54870582  0.18771422  0.51558942     0.09400
S516        S  0.55675079  0.25869054  0.58343418    -0.25300
H517        H  0.60515986  0.20816660  0.61446849     0.19700
S518        S  0.62987859  0.04974295  0.54334084    -0.31000
H519        H  0.58093860  0.10121016  0.51027473     0.10000
C520        C  0.55700309  0.22762414  0.98535512     0.03200
C521        C  0.53581527  0.24408413  0.96209878    -0.13300
C522        C  0.50854154  0.21803027  0.95925102    -0.09000
C523        C  0.50062805  0.17692331  0.48902141     0.06600
C524        C  0.52187134  0.16055550  0.51225239    -0.14000
S525        S  0.59218438  0.26115492  0.98772918    -0.31000
H526        H  0.54060789  0.27712961  0.94576975     0.10900
S527        S  0.46577434  0.14267119  0.48890156    -0.28300
H528        H  0.51719083  0.12733087  0.52851178     0.08100
H529        H  0.61359142  0.03479804  0.51409069     0.26500
H530        H  0.58609135  0.30013760  0.96364702     0.21300
H531        H  0.45079662  0.18784024  0.97809543     0.26700
H532        H  0.53026102  0.24456340  0.56708724     0.15500
C533        C  0.63870933  0.62008500  0.10523428     0.79800
N534        N  0.63943825  0.57235400  0.12033829    -0.78500
C535        C  0.66342976  0.55771046  0.13820619     0.82300
N536        N  0.68698604  0.59107550  0.14080171    -0.78400
C537        C  0.68580649  0.63990041  0.12672247     0.82400
N538        N  0.66170551  0.65414760  0.10890490    -0.80200
C539        C  0.63599946  0.94691818  0.18186236     0.79800
N540        N  0.65909557  0.91340928  0.18104141    -0.78500
C541        C  0.68443271  0.92752089  0.16549185     0.82300
N542        N  0.68691732  0.97585544  0.15097087    -0.78400
C543        C  0.66342502  0.00865935  0.15049879     0.82400
N544        N  0.63803581  0.99398642  0.16590745    -0.80200
C545        C  0.26354499  0.61623369  0.17898885     0.79800
N546        N  0.23951416  0.64726485  0.17605226    -0.78500
C547        C  0.21412688  0.62719281  0.16286888     0.82300
N548        N  0.21275316  0.57568346  0.15212331    -0.78400
C549        C  0.23711620  0.54520497  0.15317744     0.82400
N550        N  0.26233970  0.56551855  0.16667162    -0.80200
C551        C  0.25914795  0.92502899  0.10899644     0.79800
N552        N  0.23560646  0.89267968  0.11350082    -0.78500
C553        C  0.21219325  0.90994758  0.13180834     0.82300
N554        N  0.21220246  0.96000551  0.14533034    -0.78400
C555        C  0.23631405  0.99155716  0.14219251     0.82400
N556        N  0.25964762  0.97406828  0.12386451    -0.80200
In557      In  0.45070038  0.77499235  0.39148151     1.36900
C558        C  0.48649100  0.82294702  0.34917985     0.77200
O559        O  0.43647649  0.70352896  0.36010274    -0.61300
O560        O  0.41859713  0.77909453  0.34951552    -0.52200
C561        C  0.48703871  0.73721515  0.43709189     0.69800
O562        O  0.48590133  0.78560943  0.42994205    -0.47000
C563        C  0.41137680  0.81231330  0.43516131     0.74500
O564        O  0.48978971  0.77555859  0.35791267    -0.58900
O565        O  0.41146620  0.76478451  0.42455231    -0.49000
O566        O  0.46524493  0.84670604  0.36321604    -0.55300
C567        C  0.41980120  0.73052875  0.34150721     0.84700
O568        O  0.46954901  0.70730825  0.42035078    -0.57200
O569        O  0.43115728  0.84122675  0.42259155    -0.60500
C570        C  0.75911286  0.69409603  0.10790112     0.79800
N571        N  0.73603323  0.66019405  0.11079491    -0.78500
C572        C  0.71137567  0.67528374  0.12750722     0.82300
N573        N  0.70965939  0.72491186  0.14161838    -0.78400
C574        C  0.73328107  0.75815768  0.14045215     0.82400
N575        N  0.75788495  0.74260120  0.12356939    -0.80200
C576        C  0.75661544  0.87708967  0.19047033     0.79800
N577        N  0.73342029  0.90951273  0.18617279    -0.78500
C578        C  0.70979514  0.89285096  0.16775044     0.82300
N579        N  0.70907002  0.84295479  0.15384612    -0.78400
C580        C  0.73264827  0.81076692  0.15722793     0.82400
N581        N  0.75624489  0.82785479  0.17576521    -0.80200
C582        C  0.13583779  0.86428984  0.12006355     0.79800
N583        N  0.16015662  0.89564302  0.12124936    -0.78500
C584        C  0.18582149  0.87680478  0.13344608     0.82300
N585        N  0.18737231  0.82591140  0.14405460    -0.78400
C586        C  0.16283008  0.79488407  0.14389606     0.82400
N587        N  0.13729517  0.81409644  0.13158487    -0.80200
C588        C  0.13785712  0.66783393  0.17927067     0.79800
N589        N  0.16247417  0.63823360  0.17620704    -0.78500
C590        C  0.18757597  0.65935665  0.16363064     0.82300
N591        N  0.18826493  0.71088041  0.15410208    -0.78400
C592        C  0.16343730  0.74030842  0.15604014     0.82400
N593        N  0.13851320  0.71877647  0.16893519    -0.80200
In594      In  0.95332734  0.53134352  0.40224503     1.36900
C595        C  0.92006139  0.58248708  0.44732606     0.77200
O596        O  0.96925760  0.96474109  0.42972177    -0.61300
O597        O  0.99277728  0.53712303  0.43584484    -0.52200
C598        C  0.90916851  0.99355932  0.36211081     0.69800
O599        O  0.91350241  0.54021951  0.37027840    -0.47000
C600        C  0.98702481  0.56333220  0.35147950     0.74500
O601        O  0.92260867  0.53275447  0.44636286    -0.58900
O602        O  0.98065699  0.51531648  0.35608019    -0.49000
O603        O  0.93539494  0.60656917  0.42556976    -0.55300
C604        C  0.99032347  0.99126998  0.44259351     0.84700
O605        O  0.92880572  0.96465964  0.37466692    -0.57200
O606        O  0.97696418  0.59522461  0.37380814    -0.60500
C607        C  0.06158763  0.65205775  0.21782745    -0.11800
C608        C  0.06785401  0.61869856  0.24499594     0.14800
C609        C  0.09613379  0.59715328  0.24794498     0.01700
C610        C  0.11799871  0.61186630  0.22503513    -0.16100
C611        C  0.11236523  0.64733358  0.19865544    -0.11000
C612        C  0.08337494  0.66603782  0.19434926     0.08400
C613        C  0.04512335  0.60877456  0.27098027     0.09400
S614        S  0.10613000  0.55301539  0.28158210    -0.25300
H615        H  0.13995347  0.59690499  0.22883056     0.19700
S616        S  0.07258338  0.70707736  0.15943803    -0.31000
H617        H  0.03966084  0.66776590  0.21515422     0.10000
C618        C  0.04506502  0.63708676  0.30239228     0.03200
C619        C  0.02507729  0.62277319  0.32785892    -0.13300
C620        C  0.00524210  0.58055054  0.32252363    -0.09000
C621        C  0.00434299  0.55420322  0.29022282     0.06600
C622        C  0.02439986  0.56839464  0.26492935    -0.14000
S623        S  0.07095708  0.69056655  0.31027052    -0.31000
H624        H  0.02560654  0.64324610  0.35244320     0.10900
S625        S  0.97790432  0.50292692  0.27939719    -0.28100
H626        H  0.02422208  0.54722016  0.24054597     0.08100
H627        H  0.09161385  0.68311267  0.13553947     0.26500
H628        H  0.06059525  0.70529246  0.34291422     0.21300
H629        H  0.95466023  0.52621399  0.29778958     0.26700
H630        H  0.07875384  0.52727165  0.28360148     0.15500
C631        C  0.05684132  0.97110122  0.49896764    -0.11800
C632        C  0.04753389  0.93299380  0.02658986     0.14800
C633        C  0.01839916  0.91438828  0.02233315     0.01700
C634        C  0.00172185  0.93200891  0.99483373    -0.16100
C635        C  0.01060616  0.96960986  0.46804276    -0.11000
C636        C  0.03984157  0.98809861  0.47166818     0.08400
C637        C  0.06735839  0.91305940  0.05322533     0.09400
S638        S  0.00103023  0.86901100  0.05122071    -0.25300
H639        H  0.97922748  0.91825432  0.99207269     0.19700
S640        S  0.05719788  0.03160309  0.44169430    -0.31000
H641        H  0.07933791  0.98502213  0.50143129     0.10000
C642        C  0.07831045  0.86106309  0.05133240     0.03200
C643        C  0.09906494  0.84521502  0.07532908    -0.13300
C644        C  0.10994821  0.88078717  0.10046136    -0.09000
C645        C  0.09845941  0.93255026  0.10278991     0.06600
C646        C  0.07733286  0.94811834  0.07912128    -0.14000
S647        S  0.06789509  0.81633176  0.01662612    -0.31000
H648        H  0.10828149  0.80589584  0.07313362     0.10900
S649        S  0.10992989  0.98048397  0.13506836    -0.28100
H650        H  0.06894866  0.98815954  0.08048808     0.08100
H651        H  0.04325186  0.00900629  0.41271125     0.26500
H652        H  0.08470739  0.77295037  0.02682757     0.21300
H653        H  0.11665132  0.94312605  0.15997879     0.26700
H654        H  0.01860646  0.88142856  0.07984389     0.15500
C655        C  0.81465308  0.95787328  0.23833789    -0.11800
C656        C  0.82183583  0.92314650  0.26449538     0.14800
C657        C  0.80784673  0.87313293  0.26578609     0.01700
C658        C  0.78776282  0.85820467  0.24029234    -0.16100
C659        C  0.78031462  0.89301908  0.21427791    -0.11000
C660        C  0.79388914  0.94343586  0.21325804     0.08400
C661        C  0.84431187  0.93989578  0.28978800     0.09400
S662        S  0.81413038  0.82716989  0.29965600    -0.25300
H663        H  0.77691998  0.81990541  0.24158527     0.19700
S664        S  0.78567418  0.98863966  0.17943446    -0.31000
H665        H  0.82550540  0.99616632  0.23758372     0.10000
C666        C  0.87251174  0.91743371  0.28973623     0.03200
C667        C  0.89294154  0.93383321  0.31470753    -0.13300
C668        C  0.88582391  0.97292492  0.33928608    -0.09000
C669        C  0.85738637  0.99491325  0.33940214     0.06600
C670        C  0.83709059  0.97857219  0.31447063    -0.14000
S671        S  0.88286014  0.86986676  0.25687197    -0.31000
H672        H  0.91489439  0.91774982  0.31428551     0.10900
S673        S  0.84537212  0.04280949  0.37116790    -0.28100
H674        H  0.81530207  0.99546333  0.31461726     0.08100
H675        H  0.80558675  0.02885877  0.18962330     0.26500
H676        H  0.91124862  0.86024517  0.26928707     0.21300
H677        H  0.86122344  0.02103461  0.39827797     0.26700
H678        H  0.82050169  0.86543596  0.32527348     0.15500
C679        C  0.80749108  0.63294607  0.03851211    -0.11800
C680        C  0.83519534  0.65238510  0.04820206     0.14800
C681        C  0.83788399  0.68605239  0.07730514     0.01700
C682        C  0.81272241  0.69924693  0.09609596    -0.16100
C683        C  0.78485693  0.67940266  0.08665279    -0.11000
C684        C  0.78234185  0.64659098  0.05690470     0.08400
C685        C  0.86032915  0.63721788  0.02644999     0.09400
S686        S  0.87242340  0.71414121  0.09171045    -0.25300
H687        H  0.81501821  0.72476392  0.11856832     0.19700
S688        S  0.74778571  0.62341477  0.03943570    -0.31000
H689        H  0.80538483  0.60782774  0.01581041     0.10000
C690        C  0.87548384  0.58980881  0.03181473     0.03200
C691        C  0.89587845  0.57206820  0.00746293    -0.13300
C692        C  0.90022138  0.60922385  0.47196928    -0.09000
C693        C  0.88471188  0.65579068  0.46427440     0.06600
C694        C  0.86454171  0.67647513  0.48787992    -0.14000
S695        S  0.86823165  0.55139159  0.06931791    -0.31000
H696        H  0.90712645  0.53503825  0.01124556     0.10900
S697        S  0.88792105  0.68842156  0.42396027    -0.28100
H698        H  0.85204104  0.71121495  0.48144677     0.08100
H699        H  0.73351777  0.67216053  0.04461542     0.26500
H700        H  0.89010479  0.51329375  0.06346236     0.21300
H701        H  0.88619125  0.64125377  0.40420355     0.26700
H702        H  0.89112701  0.67848712  0.07471654     0.15500
C703        C  0.37408396  0.88440445  0.01142386    -0.11800
C704        C  0.34676434  0.85861106  0.01209529     0.14800
C705        C  0.34017849  0.81862790  0.98747210     0.01700
C706        C  0.36202423  0.80609053  0.46072701    -0.16100
C707        C  0.38951916  0.83162133  0.46016483    -0.11000
C708        C  0.39558907  0.87273893  0.48432671     0.08400
C709        C  0.32530614  0.87555118  0.03812488     0.09400
S710        S  0.30508253  0.78507240  0.98502284    -0.25300
H711        H  0.35702145  0.77471931  0.44223282     0.19700
S712        S  0.43046553  0.90653739  0.48693553    -0.31000
H713        H  0.37905403  0.91535507  0.03022353     0.10000
C714        C  0.31804173  0.84366787  0.06603594     0.03200
C715        C  0.29630254  0.86068072  0.08898722    -0.13300
C716        C  0.28225401  0.90933654  0.08480012    -0.09000
C717        C  0.28991788  0.94138663  0.05694816     0.06600
C718        C  0.31155780  0.92438167  0.03419019    -0.14000
S719        S  0.33686328  0.78207991  0.07276045    -0.31000
H720        H  0.29035627  0.83638660  0.11039693     0.10900
S721        S  0.27194217  0.00292840  0.04786937    -0.28100
H722        H  0.31713196  0.94864200  0.01259248     0.08100
H723        H  0.42721746  0.92919059  0.45464203     0.26500
H724        H  0.32208579  0.76854034  0.10290620     0.21300
H725        H  0.24376566  0.98580178  0.05756159     0.26700
H726        H  0.28827334  0.82792760  0.99713706     0.15500
C727        C  0.31528318  0.69120260  0.24004058    -0.11800
C728        C  0.34159215  0.66428643  0.23426543     0.14800
C729        C  0.34259349  0.62335982  0.20929274     0.01700
C730        C  0.31703087  0.60949405  0.19120979    -0.16100
C731        C  0.29025096  0.63556131  0.19745406    -0.11000
C732        C  0.28966098  0.67714229  0.22245585     0.08400
C733        C  0.36634798  0.67724141  0.25739677     0.09400
S734        S  0.37561551  0.58718597  0.19957148    -0.25300
H735        H  0.31812483  0.57774828  0.17220145     0.19700
S736        S  0.25690944  0.71136999  0.23571844    -0.31000
H737        H  0.31439995  0.72200014  0.25974689     0.10000
C738        C  0.37913203  0.72816709  0.25795372     0.03200
C739        C  0.39737253  0.74343355  0.28519701    -0.13300
C740        C  0.40314374  0.70884683  0.31199537    -0.09000
C741        C  0.39184718  0.65653418  0.31018045     0.06600
C742        C  0.37372975  0.64119953  0.28274022    -0.14000
S743        S  0.37147207  0.77425366  0.22446215    -0.31000
H744        H  0.40661124  0.78311680  0.28607386     0.10900
S745        S  0.39744641  0.60920373  0.34328207    -0.28100
H746        H  0.36369210  0.60210413  0.28237174     0.08100
H747        H  0.24109325  0.66426834  0.24152241     0.26500
H748        H  0.39066387  0.81477080  0.23603326     0.21300
H749        H  0.39117998  0.64527572  0.37014315     0.26700
H750        H  0.39538000  0.62774245  0.20951299     0.15500
C751        C  0.51595082  0.89823537  0.27351790    -0.11800
C752        C  0.54553362  0.88360639  0.27442112     0.14800
C753        C  0.55578656  0.85201803  0.30117421     0.01700
C754        C  0.53600144  0.83353943  0.32537713    -0.16100
C755        C  0.50632929  0.84758815  0.32442564    -0.11000
C756        C  0.49628384  0.88091409  0.29841499     0.08400
C757        C  0.56534799  0.90123115  0.24713190     0.09400
S758        S  0.59371652  0.83330998  0.30567346    -0.25300
H759        H  0.54389808  0.80812995  0.34531467     0.19700
S760        S  0.45833220  0.89865106  0.29400322    -0.31000
H761        H  0.50809424  0.92259123  0.25302884     0.10000
C762        C  0.57667882  0.86509270  0.22271901     0.03200
C763        C  0.59892620  0.88173186  0.20064773    -0.13300
C764        C  0.61010871  0.93371119  0.20265095    -0.09000
C765        C  0.59794823  0.97023670  0.22654205     0.06600
C766        C  0.57530824  0.95384043  0.24799647    -0.14000
S767        S  0.56323073  0.79756353  0.22021233    -0.31000
H768        H  0.60811635  0.85392037  0.18222796     0.10900
S769        S  0.61223350  0.03642099  0.23354934    -0.28100
H770        H  0.56676919  0.98129858  0.26710854     0.08100
H771        H  0.45758645  0.92553740  0.32583488     0.26500
H772        H  0.58419055  0.77862157  0.19670831     0.21300
H773        H  0.64186685  0.02132089  0.23218711     0.26700
H774        H  0.60584167  0.87915972  0.29140046     0.15500
C775        C  0.58467829  0.61903638  0.03197798    -0.11800
C776        C  0.56864212  0.66486450  0.03961268     0.14800
C777        C  0.57476678  0.69448507  0.06985422     0.01700
C778        C  0.59770823  0.67892314  0.09099684    -0.16100
C779        C  0.61401232  0.63353898  0.08310584    -0.11000
C780        C  0.60736968  0.60299632  0.05344846     0.08400
C781        C  0.54737565  0.68284179  0.01407968     0.09400
S782        S  0.55463969  0.75294128  0.08250862    -0.25300
H783        H  0.60284013  0.70223650  0.11383720     0.19700
S784        S  0.62903047  0.54583565  0.04158176    -0.31000
H785        H  0.57994880  0.59691921  0.00857735     0.10000
C786        C  0.55622940  0.72888142  0.48901566     0.03200
C787        C  0.53522694  0.74421675  0.46522665    -0.13300
C788        C  0.50794645  0.71814928  0.46264450    -0.09000
C789        C  0.49959760  0.67225543  0.98671822     0.06600
C790        C  0.52044246  0.65606063  0.01050035    -0.14000
S791        S  0.59154293  0.76199528  0.49071810    -0.31000
H792        H  0.54022934  0.77625874  0.44817130     0.10900
S793        S  0.46463434  0.63836352  0.98610818    -0.28300
H794        H  0.51541012  0.62317403  0.02690488     0.08100
H795        H  0.61408825  0.53294386  0.01101424     0.26500
H796        H  0.58501947  0.80166508  0.46726059     0.21300
H797        H  0.44995818  0.68848640  0.48098941     0.26700
H798        H  0.52846894  0.73951767  0.06526393     0.15500
C799        C  0.64176508  0.62596437  0.60187714     0.79800
N800        N  0.64234968  0.57837830  0.61717991    -0.78500
C801        C  0.66609150  0.56394569  0.63557952     0.82300
N802        N  0.68957056  0.59750338  0.63856282    -0.78400
C803        C  0.68855512  0.64618346  0.62419540     0.82400
N804        N  0.66468202  0.66013948  0.60585035    -0.80200
C805        C  0.63751258  0.94941928  0.68806914     0.79800
N806        N  0.66078602  0.91635138  0.68675961    -0.78500
C807        C  0.68590648  0.93120094  0.67102725     0.82300
N808        N  0.68797960  0.97978244  0.65675801    -0.78400
C809        C  0.66429350  0.01215551  0.65680520     0.82400
N810        N  0.63913623  0.99675344  0.67240843    -0.80200
C811        C  0.26136409  0.62365000  0.67973572     0.79800
N812        N  0.23746571  0.65496712  0.67658839    -0.78500
C813        C  0.21196865  0.63495767  0.66362396     0.82300
N814        N  0.21034353  0.58325622  0.65333877    -0.78400
C815        C  0.23456804  0.55246903  0.65463165     0.82400
N816        N  0.25990828  0.57272102  0.66786950    -0.80200
C817        C  0.25802088  0.93001560  0.60370504     0.79800
N818        N  0.23435022  0.89799586  0.60840140    -0.78500
C819        C  0.21099862  0.91581741  0.62663388     0.82300
N820        N  0.21122587  0.96601394  0.63992520    -0.78400
C821        C  0.23542771  0.99726377  0.63657167     0.82400
N822        N  0.25869581  0.97923462  0.61833176    -0.80200
In823      In  0.44982349  0.77345651  0.89375852     1.36900
C824        C  0.48633684  0.82151300  0.85237443     0.77200
O825        O  0.43493226  0.70320633  0.86152798    -0.61300
O826        O  0.41772131  0.77960064  0.85193757    -0.52200
C827        C  0.48565633  0.73474612  0.93959740     0.69800
O828        O  0.48452742  0.78331147  0.93290606    -0.47000
C829        C  0.41061501  0.81054486  0.93754808     0.74500
O830        O  0.48909895  0.77370769  0.86046861    -0.58900
O831        O  0.41074555  0.76298532  0.92698311    -0.49000
O832        O  0.46520560  0.84549280  0.86648345    -0.55300
C833        C  0.41844536  0.73122664  0.84333340     0.84700
O834        O  0.46847320  0.70511838  0.92220726    -0.57200
O835        O  0.43026879  0.83958911  0.92484175    -0.60500
C836        C  0.76085177  0.70516350  0.60543334     0.79800
N837        N  0.73807852  0.67027413  0.60705711    -0.78500
C838        C  0.71389802  0.68220138  0.62573218     0.82300
N839        N  0.71219412  0.72992183  0.64247899    -0.78400
C840        C  0.73545330  0.76410721  0.64210833     0.82400
N841        N  0.75971373  0.75147612  0.62364822    -0.80200
C842        C  0.75849757  0.88081171  0.69446125     0.79800
N843        N  0.73513255  0.91310351  0.69096136    -0.78500
C844        C  0.71141492  0.89679562  0.67256966     0.82300
N845        N  0.71078852  0.84744344  0.65786402    -0.78400
C846        C  0.73449508  0.81539821  0.66050521     0.82400
N847        N  0.75820371  0.83212939  0.67897353    -0.80200
C848        C  0.13437987  0.87049984  0.61650985     0.79800
N849        N  0.15883946  0.90151695  0.61666212    -0.78500
C850        C  0.18455708  0.88290602  0.62887752     0.82300
N851        N  0.18597270  0.83263088  0.64062601    -0.78400
C852        C  0.16127674  0.80205050  0.64151380     0.82400
N853        N  0.13572005  0.82098553  0.62912814    -0.80200
C854        C  0.13610435  0.67768782  0.68043263     0.79800
N855        N  0.16055384  0.64756354  0.67763523    -0.78500
C856        C  0.18557482  0.66750710  0.66410003     0.82300
N857        N  0.18636522  0.71834954  0.65329277    -0.78400
C858        C  0.16171499  0.74825848  0.65495861     0.82400
N859        N  0.13684852  0.72794483  0.66882467    -0.80200
In860      In  0.95430610  0.53181497  0.90401146     1.36900
C861        C  0.92118068  0.57720107  0.95170540     0.77200
O862        O  0.97229490  0.96459876  0.93282158    -0.61300
O863        O  0.99393646  0.53620679  0.93727006    -0.52200
C864        C  0.91248001  0.99409223  0.86515774     0.69800
O865        O  0.91417879  0.54224276  0.87267394    -0.47000
C866        C  0.98693742  0.56879743  0.85371703     0.74500
O867        O  0.92339124  0.52765066  0.94783748    -0.58900
O868        O  0.98177646  0.52014685  0.85754680    -0.49000
O869        O  0.93668347  0.60394556  0.93143923    -0.55300
C870        C  0.99326492  0.99087232  0.94610735     0.84700
O871        O  0.93216544  0.96506003  0.87749207    -0.57200
O872        O  0.97635251  0.59893731  0.87672305    -0.60500
C873        C  0.05989501  0.66303081  0.71979426    -0.11800
C874        C  0.06626747  0.63034731  0.74728895     0.14800
C875        C  0.09470193  0.60954465  0.75055766     0.01700
C876        C  0.11650916  0.62402674  0.72750838    -0.16100
C877        C  0.11071554  0.65846124  0.70060506    -0.11000
C878        C  0.08165370  0.67680365  0.69618518     0.08400
C879        C  0.04341126  0.61978144  0.77307380     0.09400
S880        S  0.10494120  0.56631854  0.78460527    -0.25300
H881        H  0.13852154  0.60944098  0.73146542     0.19700
S882        S  0.07069054  0.71692017  0.66090085    -0.31000
H883        H  0.03787778  0.67822149  0.71688911     0.10000
C884        C  0.04323813  0.64723242  0.80480503     0.03200
C885        C  0.02366403  0.63134781  0.83034418    -0.13300
C886        C  0.00433631  0.58844176  0.82472176    -0.09000
C887        C  0.00330431  0.56333987  0.79203017     0.06600
C888        C  0.02298661  0.57900124  0.76670600    -0.14000
S889        S  0.06853333  0.70152873  0.81298251    -0.31000
H890        H  0.02420661  0.65100379  0.85519396     0.10900
S891        S  0.97719333  0.51168134  0.78081924    -0.28100
H892        H  0.02284112  0.55850302  0.74209054     0.08100
H893        H  0.08937167  0.69192590  0.63705799     0.26500
H894        H  0.05881866  0.71402373  0.84625302     0.21300
H895        H  0.95405949  0.53320078  0.80027411     0.26700
H896        H  0.07769039  0.54024502  0.78702986     0.15500
C897        C  0.05904129  0.96946640  0.00357147    -0.11800
C898        C  0.04562888  0.93515795  0.52251155     0.14800
C899        C  0.01652287  0.91616061  0.51880041     0.01700
C900        C  0.99952061  0.93304688  0.49138664    -0.16100
C901        C  0.01315755  0.96889105  0.97190486    -0.11000
C902        C  0.04237754  0.98716346  0.97617552     0.08400
C903        C  0.06565704  0.91637036  0.54926277     0.09400
S904        S  0.99956193  0.87131578  0.54834035    -0.25300
H905        H  0.97702578  0.91910711  0.48907473     0.19700
S906        S  0.06018834  0.03112235  0.94684239    -0.31000
H907        H  0.08154847  0.98314278  0.00645507     0.10000
C908        C  0.07676090  0.86446670  0.54803034     0.03200
C909        C  0.09761804  0.84965163  0.57217345    -0.13300
C910        C  0.10842435  0.88614009  0.59679260    -0.09000
C911        C  0.09676231  0.93778884  0.59850687     0.06600
C912        C  0.07554791  0.95235896  0.57467450    -0.14000
S913        S  0.06636317  0.81847198  0.51400268    -0.31000
H914        H  0.10696031  0.81038498  0.57049602     0.10900
S915        S  0.10806758  0.98673127  0.63023082    -0.28100
H916        H  0.06700246  0.99230427  0.57555048     0.08100
H917        H  0.04673722  0.00883112  0.91745128     0.26500
H918        H  0.08338067  0.77566495  0.52472112     0.21300
H919        H  0.11525478  0.95020008  0.65547279     0.26700
H920        H  0.01726301  0.88474428  0.57668429     0.15500
C921        C  0.81689673  0.96042221  0.74254999    -0.11800
C922        C  0.82447395  0.92482255  0.76805912     0.14800
C923        C  0.81062324  0.87463707  0.76882562     0.01700
C924        C  0.79024614  0.86049038  0.74348004    -0.16100
C925        C  0.78240156  0.89617612  0.71813096    -0.11000
C926        C  0.79586256  0.94672788  0.71762036     0.08400
C927        C  0.84710302  0.94103684  0.79330515     0.09400
S928        S  0.81743880  0.82744250  0.80183146    -0.25300
H929        H  0.77950666  0.82205652  0.74437741     0.19700
S930        S  0.78720016  0.99304516  0.68459071    -0.31000
H931        H  0.82766077  0.99882271  0.74217842     0.10000
C932        C  0.87535438  0.91877350  0.79277148     0.03200
C933        C  0.89596312  0.93493287  0.81760519    -0.13300
C934        C  0.88898957  0.97367085  0.84247264    -0.09000
C935        C  0.86052482  0.99554478  0.84302517     0.06600
C936        C  0.84002745  0.97932823  0.81829560    -0.14000
S937        S  0.88557332  0.87194371  0.75941702    -0.31000
H938        H  0.91794928  0.91901543  0.81682119     0.10900
S939        S  0.84876365  0.04332399  0.87500280    -0.28100
H940        H  0.81822105  0.99614294  0.81877374     0.08100
H941        H  0.80660147  0.03360781  0.69556737     0.26500
H942        H  0.91389905  0.86163671  0.77178120     0.21300
H943        H  0.86486396  0.02150778  0.90189684     0.26700
H944        H  0.82404087  0.86481561  0.82791040     0.15500
C945        C  0.80600841  0.66154207  0.52854880    -0.11800
C946        C  0.83463464  0.67014446  0.54068630     0.14800
C947        C  0.83888813  0.69364077  0.57342760     0.01700
C948        C  0.81448250  0.70496825  0.59398919    -0.16100
C949        C  0.78582149  0.69446253  0.58230430    -0.11000
C950        C  0.78164815  0.67423621  0.54864179     0.08400
C951        C  0.85918092  0.65145056  0.51893039     0.09400
S952        S  0.87473540  0.70965109  0.59053037    -0.25300
H953        H  0.81790539  0.72160515  0.61944273     0.19700
S954        S  0.74595868  0.66558834  0.52921469    -0.31000
H955        H  0.80262869  0.64458559  0.50316107     0.10000
C956        C  0.87504992  0.60572197  0.52703561     0.03200
C957        C  0.89538916  0.58519077  0.50353448    -0.13300
C958        C  0.90148658  0.60087336  0.97778456    -0.09000
C959        C  0.88689942  0.64947840  0.97317434     0.06600
C960        C  0.86666524  0.66722839  0.99765349    -0.14000
S961        S  0.86820150  0.57155850  0.56636566    -0.31000
H962        H  0.90718077  0.54948212  0.50947009     0.10900
S963        S  0.89119708  0.68846999  0.93549163    -0.28100
H964        H  0.85467437  0.70339822  0.99340309     0.08100
H965        H  0.73382278  0.71132309  0.54454028     0.26500
H966        H  0.89053670  0.53379125  0.56252435     0.21300
H967        H  0.88824116  0.64487750  0.91267273     0.26700
H968        H  0.88889352  0.71523953  0.55893404     0.15500
C969        C  0.37435620  0.88672113  0.50854977    -0.11800
C970        C  0.34692050  0.86126907  0.50887124     0.14800
C971        C  0.34051792  0.82110233  0.48429647     0.01700
C972        C  0.36147539  0.80395246  0.96357024    -0.16100
C973        C  0.38889369  0.82972179  0.96272094    -0.11000
C974        C  0.39507290  0.87084592  0.98684057     0.08400
C975        C  0.32512988  0.87880770  0.53440809     0.09400
S976        S  0.30538519  0.78773212  0.48146108    -0.25300
H977        H  0.35637943  0.77262997  0.94507567     0.19700
S978        S  0.42979537  0.90522983  0.98893295    -0.31000
H979        H  0.37922331  0.91774871  0.52733137     0.10000
C980        C  0.31716219  0.84722601  0.56221725     0.03200
C981        C  0.29507260  0.86472345  0.58457610    -0.13300
C982        C  0.28131326  0.91354252  0.57989969    -0.09000
C983        C  0.28965355  0.94525051  0.55213183     0.06600
C984        C  0.31165536  0.92778232  0.52997882    -0.14000
S985        S  0.33558117  0.78544857  0.56962261    -0.31000
H986        H  0.28868153  0.84073798  0.60596255     0.10900
S987        S  0.27213773  0.00696718  0.54240285    -0.28100
H988        H  0.31773094  0.95179800  0.50844426     0.08100
H989        H  0.42609858  0.92770247  0.95664987     0.26500
H990        H  0.31910923  0.77097215  0.59836695     0.21300
H991        H  0.24374470  0.99046189  0.55168832     0.26700
H992        H  0.28851838  0.83078608  0.49314133     0.15500
C993        C  0.31315709  0.69698001  0.74151003    -0.11800
C994        C  0.33947220  0.67023517  0.73537636     0.14800
C995        C  0.34051186  0.63039176  0.70967944     0.01700
C996        C  0.31494711  0.61711850  0.69141039    -0.16100
C997        C  0.28814151  0.64281069  0.69812376    -0.11000
C998        C  0.28754553  0.68356555  0.72367307     0.08400
C999        C  0.36421716  0.68210351  0.75879186     0.09400
S1000       S  0.37359851  0.59486053  0.69927987    -0.25300
H1001       H  0.31603173  0.58607224  0.67192300     0.19700
S1002       S  0.25475104  0.71729170  0.73732381    -0.31000
H1003       H  0.31224930  0.72702898  0.76168657     0.10000
C1004       C  0.37719237  0.73285978  0.76017085     0.03200
C1005       C  0.39564948  0.74673940  0.78751120    -0.13300
C1006       C  0.40146859  0.71094418  0.81363088    -0.09000
C1007       C  0.38993327  0.65884457  0.81098582     0.06600
C1008       C  0.37158379  0.64490852  0.78344745    -0.14000
S1009       S  0.36960796  0.78042376  0.72753512    -0.31000
H1010       H  0.40506540  0.78626462  0.78897916     0.10900
S1011       S  0.39561510  0.60995848  0.84310800    -0.28100
H1012       H  0.36142725  0.60591761  0.78244184     0.08100
H1013       H  0.23888198  0.66998628  0.74228108     0.26500
H1014       H  0.38877202  0.82045475  0.73987111     0.21300
H1015       H  0.38956913  0.64487669  0.87066140     0.26700
H1016       H  0.39325781  0.63529966  0.70972413     0.15500
C1017       C  0.51730825  0.89859168  0.77832963    -0.11800
C1018       C  0.54680089  0.88350229  0.77965907     0.14800
C1019       C  0.55650434  0.85099089  0.80621560     0.01700
C1020       C  0.53625097  0.83194916  0.82970944    -0.16100
C1021       C  0.50666371  0.84645456  0.82830453    -0.11000
C1022       C  0.49718678  0.88081243  0.80257937     0.08400
C1023       C  0.56705396  0.90161528  0.75295749     0.09400
S1024       S  0.59431239  0.83196391  0.81137928    -0.25300
H1025       H  0.54371567  0.80583227  0.84948591     0.19700
S1026       S  0.45941862  0.89945425  0.79770485    -0.31000
H1027       H  0.50988280  0.92370781  0.75801085     0.10000
C1028       C  0.57856260  0.86602728  0.72832482     0.03200
C1029       C  0.60082433  0.88329614  0.70648255    -0.13300
C1030       C  0.61181514  0.93536992  0.70891181    -0.09000
C1031       C  0.59953717  0.97130331  0.73308355     0.06600
C1032       C  0.57691687  0.95427009  0.75434219    -0.14000
S1033       S  0.56520874  0.79848483  0.72511142    -0.31000
H1034       H  0.61010815  0.85595808  0.68783493     0.10900
S1035       S  0.61354238  0.03757662  0.74055080    -0.28100
H1036       H  0.56821402  0.98131079  0.77359732     0.08100
H1037       H  0.45841023  0.92545019  0.82982182     0.26500
H1038       H  0.58608879  0.78029301  0.70127151     0.21300
H1039       H  0.64324430  0.02298618  0.73886049     0.26700
H1040       H  0.60670478  0.87833462  0.79809377     0.15500
C1041       C  0.58732792  0.62364508  0.52892608    -0.11800
C1042       C  0.57133284  0.66960921  0.53629481     0.14800
C1043       C  0.57777829  0.70004604  0.56611778     0.01700
C1044       C  0.60091174  0.68498548  0.58716043    -0.16100
C1045       C  0.61712528  0.63935279  0.57958280    -0.11000
C1046       C  0.61022052  0.60813943  0.55028812     0.08400
C1047       C  0.54976283  0.68683959  0.51087205     0.09400
S1048       S  0.55780906  0.75889218  0.57836883    -0.25300
H1049       H  0.60621678  0.70881846  0.60972706     0.19700
S1050       S  0.63179475  0.55075868  0.53869225    -0.31000
H1051       H  0.58239398  0.60096697  0.50580093     0.10000
C1052       C  0.55403223  0.72569200  0.99294753     0.03200
C1053       C  0.53335116  0.74154350  0.96892418    -0.13300
C1054       C  0.50620595  0.71522472  0.96540742    -0.09000
C1055       C  0.50155917  0.67586361  0.48459142     0.06600
C1056       C  0.52271503  0.66020597  0.50816681    -0.14000
S1057       S  0.58920795  0.75914739  0.99581430    -0.31000
H1058       H  0.53852307  0.77416192  0.95239024     0.10900
S1059       S  0.46652346  0.64224107  0.48504247    -0.28300
H1060       H  0.51784301  0.62789933  0.52509726     0.08100
H1061       H  0.61601281  0.53620993  0.50899148     0.26500
H1062       H  0.58276218  0.79989879  0.97310798     0.21300
H1063       H  0.44803271  0.68460417  0.98221663     0.26700
H1064       H  0.53152884  0.74540670  0.56137774     0.15500
loop_ 
_geom_bond_atom_site_label_1 
_geom_bond_atom_site_label_2 
_geom_bond_distance 
_geom_bond_site_symmetry_2 
_ccdc_geom_bond_type 
C1            N2   1.354       .  A
C1            N6   1.355       .  A
C1          C247   1.466       .  S
N2            C3   1.356       .  A
C3            N4   1.362       .  A
C3          C543   1.466       .  S
N4            C5   1.363       .  A
C5            N6   1.355       .  A
C5           C40   1.462       .  S
C7            N8   1.357       .  A
C7           N12   1.355       .  A
C7          C232   1.473       .  S
N8            C9   1.356       .  A
C9           N10   1.361       .  A
C9           C46   1.460       .  S
N10          C11   1.359       .  A
C11          N12   1.356       .  A
C11         C535   1.465       .  S
C13          N14   1.357       .  A
C13          N18   1.360       .  A
C13         C199   1.489       .  S
N14          C15   1.355       .  A
C15          N16   1.357       .  A
C15          C58   1.460       .  S
N16          C17   1.356       .  A
C17          N18   1.358       .  A
C17         C555   1.462   1_545  S
C19          N20   1.357       .  A
C19          N24   1.356       .  A
C19         C184   1.471       .  S
N20          C21   1.357       .  A
C21          N22   1.360       .  A
C21          C52   1.460       .  S
N22          C23   1.358       .  A
C23          N24   1.356       .  A
C23         C549   1.463       .  S
In25         O27   2.249       .  S
In25         O28   2.205       .  S
In25         O36   2.244       .  S
In25         O30   2.212       .  S
In25         O32   2.210       .  S
In25         O33   2.221       .  S
In25         O34   2.238       .  S
In25         O37   2.236       .  S
C26         C223   1.469       .  S
C26          O32   1.261       .  A
C26          O34   1.263       .  A
O27          C35   1.265       .  A
O28          C35   1.260       .  A
C29         C256   1.472       .  S
C29          O36   1.265       .  A
C29          O30   1.260       .  A
C31         C175   1.474       .  S
C31          O33   1.261       .  A
C31          O37   1.262       .  A
C35         C208   1.474       .  S
C38          N39   1.357       .  A
C38          N43   1.357       .  A
C38         C151   1.480       .  S
N39          C40   1.355       .  A
C40          N41   1.361       .  A
N41          C42   1.360       .  A
C42          N43   1.357       .  A
C42          C48   1.467       .  S
C44          N45   1.355       .  A
C44          N49   1.357       .  A
C44         C127   1.472       .  S
N45          C46   1.355       .  A
C46          N47   1.361       .  A
N47          C48   1.361       .  A
C48          N49   1.358       .  A
C50          N51   1.355       .  A
C50          N55   1.355       .  A
C50         C112   1.473       .  S
N51          C52   1.355       .  A
C52          N53   1.361       .  A
N53          C54   1.361       .  A
C54          N55   1.356       .  A
C54          C60   1.466       .  S
C56          N57   1.357       .  A
C56          N61   1.356       .  A
C56          C79   1.482       .  S
N57          C58   1.355       .  A
C58          N59   1.360       .  A
N59          C60   1.359       .  A
C60          N61   1.358       .  A
In62         O65   2.226       .  S
In62         O67   2.217       .  S
In62         O69   2.223       .  S
In62         O70   2.222       .  S
In62         O71   2.245       .  S
In62         O74   2.247       .  S
In62        O596   2.246   1_545  S
In62        O605   2.249   1_545  S
C63         C160   1.477       .  S
C63          O69   1.261       .  A
C63          O71   1.264       .  A
O64        In594   2.248       .  S
O64          C72   1.264       .  A
O65         C604   1.260   1_545  A
C66         C136   1.473       .  S
C66          O73   1.265       .  A
C66         O599   1.260       .  A
O67         C598   1.260   1_545  A
C68          C88   1.475   1_655  S
C68          O70   1.260       .  A
C68          O74   1.265       .  A
C72         C103   1.477   1_655  S
C72         O597   1.260       .  A
O73        In594   2.250       .  S
C75          C76   1.402       .  A
C75          C80   1.402       .  A
C75          H85   1.084       .  S
C76          C81   1.475       .  S
C76          C77   1.409       .  A
C77          C78   1.395       .  A
C77          S82   1.805       .  S
C78          C79   1.406       .  A
C78          H83   1.084       .  S
C79          C80   1.417       .  A
C80          S84   1.803       .  S
C81          C86   1.409       .  A
C81          C90   1.399       .  A
S82          H98   1.405       .  S
S84          H95   1.407       .  S
C86          C87   1.402       .  A
C86          S91   1.807       .  S
C87          C88   1.403       .  A
C87          H92   1.083       .  S
C88          C89   1.416       .  A
C89          C90   1.398       .  A
C89          S93   1.804   1_455  S
C90          H94   1.084       .  S
S91          H96   1.407       .  S
S93          H97   1.408       .  S
C99         C104   1.397       .  A
C99         C366   1.401       .  A
C99         H109   1.084       .  S
C100        C105   1.479       .  S
C100        C101   1.414       .  A
C100        C365   1.401       .  A
C101        C102   1.400   1_554  A
C101        S106   1.806       .  S
C102        C369   1.405       .  A
C102        H107   1.084   1_455  S
C103        C104   1.414       .  A
C103        C368   1.405       .  A
C104        S108   1.803       .  S
C105        C110   1.409       .  A
C105        C114   1.404       .  A
S106        H122   1.405       .  S
S108        H119   1.407       .  S
C110        C111   1.399       .  A
C110        S115   1.808       .  S
C111        C112   1.404       .  A
C111        H116   1.083       .  S
C112        C113   1.412       .  A
C113        C114   1.399       .  A
C113        S117   1.805       .  S
C114        H118   1.084       .  S
S115        H120   1.407       .  S
S117        H121   1.406       .  S
C123        C124   1.403       .  A
C123        C128   1.403       .  A
C123        H133   1.083       .  S
C124        C129   1.477       .  S
C124        C125   1.412       .  A
C125        C126   1.397       .  A
C125        S130   1.805       .  S
C126        C127   1.402       .  A
C126        H131   1.084       .  S
C127        C128   1.410       .  A
C128        S132   1.807       .  S
C129        C134   1.409       .  A
C129        C138   1.401       .  A
S130        H146   1.406       .  S
S132        H143   1.407       .  S
C134        C135   1.403       .  A
C134        S139   1.806       .  S
C135        C136   1.403       .  A
C135        H140   1.083       .  S
C136        C137   1.414       .  A
C137        C138   1.398       .  A
C137        S141   1.805       .  S
C138        H142   1.084       .  S
S139        H144   1.407       .  S
S141        H145   1.407       .  S
C147        C148   1.400       .  A
C147        C152   1.396       .  A
C147        H157   1.084       .  S
C148        C153   1.474       .  S
C148        C149   1.411       .  A
C149        C150   1.401       .  A
C149        S154   1.805       .  S
C150        C151   1.407       .  A
C150        H155   1.084       .  S
C151        C152   1.417       .  A
C152        S156   1.804       .  S
C153        C158   1.406       .  A
C153        C428   1.401   1_554  A
S154        H170   1.404       .  S
S156        H167   1.407       .  S
C158        C159   1.400       .  A
C158        S163   1.807       .  S
C159        C426   1.406   1_554  A
C159        H164   1.083       .  S
C160        C161   1.415       .  A
C160        C425   1.406       .  A
C161        C162   1.399       .  A
C161        S165   1.802       .  S
C162        C419   1.401       .  A
C162        H166   1.084       .  S
S163        H168   1.407       .  S
S165        H169   1.407       .  S
C171        C172   1.401       .  A
C171        C442   1.397   1_554  A
C171        H181   1.084       .  S
C172        C177   1.474       .  S
C172        C173   1.411   1_554  A
C173        C440   1.397       .  A
C173        S178   1.805       .  S
C174        C175   1.404       .  A
C174        C439   1.396       .  A
C174        H179   1.084       .  S
C175        C176   1.414       .  A
C176        C437   1.397       .  A
C176        S180   1.799       .  S
C177        C182   1.410       .  A
C177        C186   1.399       .  A
S178        H194   1.405       .  S
S180        H191   1.407       .  S
C182        C183   1.403       .  A
C182        S187   1.806       .  S
C183        C184   1.403       .  A
C183        H188   1.083       .  S
C184        C185   1.415       .  A
C185        C186   1.394       .  A
C185        S189   1.804       .  S
C186        H190   1.084       .  S
S187        H192   1.407       .  S
S189        H193   1.407       .  S
C195        C196   1.399       .  A
C195        C200   1.394       .  A
C195        H205   1.084       .  S
C196        C201   1.477       .  S
C196        C197   1.408       .  A
C197        C198   1.400       .  A
C197        S202   1.804       .  S
C198        C199   1.410       .  A
C198        H203   1.083       .  S
C199        C200   1.421       .  A
C200        S204   1.803       .  S
C201        C206   1.407       .  A
C201        C210   1.403       .  A
S202        H218   1.406       .  S
S204        H215   1.408       .  S
C206        C207   1.397       .  A
C206        S211   1.808       .  S
C207        C208   1.405       .  A
C207        H212   1.083       .  S
C208        C209   1.413       .  A
C209        C210   1.400       .  A
C209        S213   1.801       .  S
C210        H214   1.084       .  S
S211        H216   1.407       .  S
S213        H217   1.407       .  S
C219        C220   1.402       .  A
C219        C224   1.399       .  A
C219        H229   1.084       .  S
C220        C225   1.472       .  S
C220        C221   1.411       .  A
C221        C222   1.393       .  A
C221        S226   1.805       .  S
C222        C223   1.401       .  A
C222        H227   1.084       .  S
C223        C224   1.413       .  A
C224        S228   1.800       .  S
C225        C230   1.409       .  A
C225        C234   1.398       .  A
S226        H242   1.405       .  S
S228        H239   1.407       .  S
C230        C231   1.401       .  A
C230        S235   1.807       .  S
C231        C232   1.404       .  A
C231        H236   1.083       .  S
C232        C233   1.416       .  A
C233        C234   1.396       .  A
C233        S237   1.803       .  S
C234        H238   1.084       .  S
S235        H240   1.407       .  S
S237        H241   1.407       .  S
C243        C244   1.401       .  A
C243        C248   1.401       .  A
C243        H253   1.083       .  S
C244        C249   1.473       .  S
C244        C245   1.412       .  A
C245        C246   1.396       .  A
C245        S250   1.804       .  S
C246        C247   1.400       .  A
C246        H251   1.084       .  S
C247        C248   1.411       .  A
C248        S252   1.808       .  S
C249        C258   1.401       .  A
C249        C520   1.408   1_554  A
S250        H266   1.405       .  S
S252        H263   1.407       .  S
C254        C255   1.398       .  A
C254        C515   1.407       .  A
C254        S259   1.808       .  S
C255        C256   1.404       .  A
C255        H260   1.083       .  S
C256        C523   1.413       .  A
C257        C258   1.399   1_556  A
C257        C522   1.413       .  A
C257        S261   1.802       .  S
C258        H262   1.084       .  S
S259        H264   1.407       .  S
S261        H531   1.407       .  S
H265        S527   1.407       .  S
C267        N268   1.354       .  A
C267        N272   1.354       .  A
C267        C513   1.465       .  S
N268        C269   1.356       .  A
C269        N270   1.362       .  A
C269        C809   1.466       .  S
N270        C271   1.363       .  A
C271        N272   1.355       .  A
C271        C306   1.462       .  S
C273        N274   1.356       .  A
C273        N278   1.356       .  A
C273        C498   1.474       .  S
N274        C275   1.356       .  A
C275        N276   1.362       .  A
C275        C312   1.461       .  S
N276        C277   1.360       .  A
C277        N278   1.357       .  A
C277        C801   1.467       .  S
C279        N280   1.357       .  A
C279        N284   1.360       .  A
C279        C465   1.491       .  S
N280        C281   1.355       .  A
C281        N282   1.357       .  A
C281        C324   1.461       .  S
N282        C283   1.357       .  A
C283        N284   1.358       .  A
C283        C821   1.464   1_545  S
C285        N286   1.356       .  A
C285        N290   1.355       .  A
C285        C450   1.468       .  S
N286        C287   1.356       .  A
C287        N288   1.360       .  A
C287        C318   1.460       .  S
N288        C289   1.359       .  A
C289        N290   1.355       .  A
C289        C815   1.463       .  S
In291       O293   2.248       .  S
In291       O294   2.205       .  S
In291       O302   2.243       .  S
In291       O296   2.213       .  S
In291       O298   2.210       .  S
In291       O299   2.225       .  S
In291       O300   2.239       .  S
In291       O303   2.239       .  S
C292        C489   1.469       .  S
C292        O298   1.261       .  A
C292        O300   1.264       .  A
O293        C301   1.265       .  A
O294        C301   1.260       .  A
C295        C522   1.472       .  S
C295        O302   1.265       .  A
C295        O296   1.261       .  A
C297        C441   1.476       .  S
C297        O299   1.261       .  A
C297        O303   1.262       .  A
C301        C474   1.474       .  S
C304        N305   1.357       .  A
C304        N309   1.357       .  A
C304        C417   1.480       .  S
N305        C306   1.356       .  A
C306        N307   1.361       .  A
N307        C308   1.360       .  A
C308        N309   1.357       .  A
C308        C314   1.467       .  S
C310        N311   1.357       .  A
C310        N315   1.357       .  A
C310        C393   1.474       .  S
N311        C312   1.355       .  A
C312        N313   1.361       .  A
N313        C314   1.360       .  A
C314        N315   1.358       .  A
C316        N317   1.356       .  A
C316        N321   1.356       .  A
C316        C378   1.474       .  S
N317        C318   1.356       .  A
C318        N319   1.361       .  A
N319        C320   1.360       .  A
C320        N321   1.356       .  A
C320        C326   1.466       .  S
C322        N323   1.357       .  A
C322        N327   1.356       .  A
C322        C345   1.481       .  S
N323        C324   1.356       .  A
C324        N325   1.360       .  A
N325        C326   1.359       .  A
C326        N327   1.357       .  A
In328       O862   2.247   1_545  S
In328       O331   2.229       .  S
In328       O871   2.250   1_545  S
In328       O333   2.217       .  S
In328       O335   2.220       .  S
In328       O336   2.223       .  S
In328       O337   2.245       .  S
In328       O340   2.245       .  S
C329        C426   1.477       .  S
C329        O335   1.261       .  A
C329        O337   1.264       .  A
O330       In860   2.248       .  S
O330        C338   1.264       .  A
O331        C870   1.260   1_545  A
C332        C402   1.475       .  S
C332        O339   1.265       .  A
C332        O865   1.260       .  A
O333        C864   1.260   1_545  A
C334        C354   1.474   1_655  S
C334        O336   1.260       .  A
C334        O340   1.264       .  A
C338        C369   1.477   1_655  S
C338        O863   1.260       .  A
O339       In860   2.248       .  S
C341        C342   1.401       .  A
C341        C346   1.401       .  A
C341        H351   1.084       .  S
C342        C347   1.475       .  S
C342        C343   1.410       .  A
C343        C344   1.395       .  A
C343        S348   1.805       .  S
C344        C345   1.405       .  A
C344        H349   1.084       .  S
C345        C346   1.417       .  A
C346        S350   1.803       .  S
C347        C352   1.409       .  A
C347        C356   1.399       .  A
S348        H364   1.405       .  S
S350        H361   1.407       .  S
C352        C353   1.402       .  A
C352        S357   1.806       .  S
C353        C354   1.403       .  A
C353        H358   1.083       .  S
C354        C355   1.416       .  A
C355        C356   1.397       .  A
C355        S359   1.804   1_455  S
C356        H360   1.084       .  S
S357        H362   1.407       .  S
S359        H363   1.407       .  S
C365        C370   1.396   1_554  A
C365        H375   1.084       .  S
C366        C371   1.479       .  S
C366        C367   1.414       .  A
C367        C368   1.400       .  A
C367        S372   1.806       .  S
C368        H373   1.084   1_455  S
C369        C370   1.414       .  A
C370        S374   1.803       .  S
C371        C376   1.409       .  A
C371        C380   1.404       .  A
S372        H388   1.405       .  S
S374        H385   1.407       .  S
C376        C377   1.399       .  A
C376        S381   1.808       .  S
C377        C378   1.405       .  A
C377        H382   1.083       .  S
C378        C379   1.413       .  A
C379        C380   1.400       .  A
C379        S383   1.804       .  S
C380        H384   1.084       .  S
S381        H386   1.407       .  S
S383        H387   1.407       .  S
C389        C390   1.403       .  A
C389        C394   1.404       .  A
C389        H399   1.083       .  S
C390        C395   1.478       .  S
C390        C391   1.412       .  A
C391        C392   1.398       .  A
C391        S396   1.805       .  S
C392        C393   1.403       .  A
C392        H397   1.084       .  S
C393        C394   1.410       .  A
C394        S398   1.807       .  S
C395        C400   1.409       .  A
C395        C404   1.401       .  A
S396        H412   1.405       .  S
S398        H409   1.407       .  S
C400        C401   1.403       .  A
C400        S405   1.806       .  S
C401        C402   1.404       .  A
C401        H406   1.083       .  S
C402        C403   1.415       .  A
C403        C404   1.398       .  A
C403        S407   1.804       .  S
C404        H408   1.084       .  S
S405        H410   1.407       .  S
S407        H411   1.407       .  S
C413        C414   1.400       .  A
C413        C418   1.396       .  A
C413        H423   1.084       .  S
C414        C419   1.474       .  S
C414        C415   1.410       .  A
C415        C416   1.400       .  A
C415        S420   1.804       .  S
C416        C417   1.406       .  A
C416        H421   1.084       .  S
C417        C418   1.417       .  A
C418        S422   1.804       .  S
C419        C424   1.406       .  A
S420        H436   1.405       .  S
S422        H433   1.407       .  S
C424        C425   1.400       .  A
C424        S429   1.807       .  S
C425        H430   1.083       .  S
C426        C427   1.415       .  A
C427        C428   1.400       .  A
C427        S431   1.801       .  S
C428        H432   1.084       .  S
S429        H434   1.407       .  S
S431        H435   1.408       .  S
C437        C438   1.401       .  A
C437        H447   1.084       .  S
C438        C443   1.472       .  S
C438        C439   1.410       .  A
C439        S444   1.805       .  S
C440        C441   1.405       .  A
C440        H445   1.084       .  S
C441        C442   1.414       .  A
C442        S446   1.799       .  S
C443        C448   1.409       .  A
C443        C452   1.398       .  A
S444        H460   1.405       .  S
S446        H457   1.407       .  S
C448        C449   1.402       .  A
C448        S453   1.806       .  S
C449        C450   1.403       .  A
C449        H454   1.083       .  S
C450        C451   1.414       .  A
C451        C452   1.393       .  A
C451        S455   1.804       .  S
C452        H456   1.084       .  S
S453        H458   1.407       .  S
S455        H459   1.407       .  S
C461        C462   1.399       .  A
C461        C466   1.394       .  A
C461        H471   1.084       .  S
C462        C467   1.477       .  S
C462        C463   1.408       .  A
C463        C464   1.401       .  A
C463        S468   1.804       .  S
C464        C465   1.411       .  A
C464        H469   1.083       .  S
C465        C466   1.422       .  A
C466        S470   1.803       .  S
C467        C472   1.407       .  A
C467        C476   1.403       .  A
S468        H484   1.406       .  S
S470        H481   1.408       .  S
C472        C473   1.397       .  A
C472        S477   1.808       .  S
C473        C474   1.405       .  A
C473        H478   1.083       .  S
C474        C475   1.413       .  A
C475        C476   1.399       .  A
C475        S479   1.801       .  S
C476        H480   1.084       .  S
S477        H482   1.407       .  S
S479        H483   1.407       .  S
C485        C486   1.402       .  A
C485        C490   1.400       .  A
C485        H495   1.084       .  S
C486        C491   1.473       .  S
C486        C487   1.411       .  A
C487        C488   1.393       .  A
C487        S492   1.805       .  S
C488        C489   1.401       .  A
C488        H493   1.084       .  S
C489        C490   1.413       .  A
C490        S494   1.799       .  S
C491        C496   1.409       .  A
C491        C500   1.398       .  A
S492        H508   1.406       .  S
S494        H505   1.407       .  S
C496        C497   1.402       .  A
C496        S501   1.807       .  S
C497        C498   1.404       .  A
C497        H502   1.083       .  S
C498        C499   1.416       .  A
C499        C500   1.396       .  A
C499        S503   1.803       .  S
C500        H504   1.084       .  S
S501        H506   1.407       .  S
S503        H507   1.407       .  S
C509        C510   1.401       .  A
C509        C514   1.400       .  A
C509        H519   1.083       .  S
C510        C515   1.473       .  S
C510        C511   1.413       .  A
C511        C512   1.397       .  A
C511        S516   1.805       .  S
C512        C513   1.400       .  A
C512        H517   1.084       .  S
C513        C514   1.411       .  A
C514        S518   1.808       .  S
C515        C524   1.401       .  A
S516        H532   1.405       .  S
S518        H529   1.407       .  S
C520        C521   1.398       .  A
C520        S525   1.808       .  S
C521        C522   1.404       .  A
C521        H526   1.083       .  S
C523        C524   1.399       .  A
C523        S527   1.802       .  S
C524        H528   1.084       .  S
S525        H530   1.407       .  S
C533        N534   1.354       .  A
C533        N538   1.355       .  A
C533        C779   1.466       .  S
N534        C535   1.356       .  A
C535        N536   1.361       .  A
N536        C537   1.362       .  A
C537        N538   1.356       .  A
C537        C572   1.462       .  S
C539        N540   1.356       .  A
C539        N544   1.357       .  A
C539        C764   1.474       .  S
N540        C541   1.355       .  A
C541        N542   1.361       .  A
C541        C578   1.460       .  S
N542        C543   1.359   1_565  A
C543        N544   1.358   1_545  A
C545        N546   1.358       .  A
C545        N550   1.359       .  A
C545        C731   1.488       .  S
N546        C547   1.356       .  A
C547        N548   1.359       .  A
C547        C590   1.463       .  S
N548        C549   1.357       .  A
C549        N550   1.356       .  A
C551        N552   1.357       .  A
C551        N556   1.356       .  A
C551        C716   1.469       .  S
N552        C553   1.356       .  A
C553        N554   1.359       .  A
C553        C584   1.461       .  S
N554        C555   1.359       .  A
C555        N556   1.355       .  A
In557       O559   2.250       .  S
In557       O560   2.203       .  S
In557       O568   2.245       .  S
In557       O562   2.209       .  S
In557       O564   2.215       .  S
In557       O565   2.226       .  S
In557       O566   2.238       .  S
In557       O569   2.239       .  S
C558        C755   1.471       .  S
C558        O564   1.261       .  A
C558        O566   1.264       .  A
O559        C567   1.265       .  A
O560        C567   1.260       .  A
C561        C788   1.472       .  S
C561        O568   1.265       .  A
C561        O562   1.261       .  A
C563        C707   1.476       .  S
C563        O565   1.261       .  A
C563        O569   1.262       .  A
C567        C740   1.474       .  S
C570        N571   1.357       .  A
C570        N575   1.359       .  A
C570        C683   1.484       .  S
N571        C572   1.355       .  A
C572        N573   1.361       .  A
N573        C574   1.361       .  A
C574        N575   1.359       .  A
C574        C580   1.469       .  S
C576        N577   1.355       .  A
C576        N581   1.358       .  A
C576        C659   1.473       .  S
N577        C578   1.354       .  A
C578        N579   1.361       .  A
N579        C580   1.361       .  A
C580        N581   1.359       .  A
C582        N583   1.356       .  A
C582        N587   1.356       .  A
C582        C644   1.475       .  S
N583        C584   1.357       .  A
C584        N585   1.361       .  A
N585        C586   1.360       .  A
C586        N587   1.357       .  A
C586        C592   1.467       .  S
C588        N589   1.357       .  A
C588        N593   1.356       .  A
C588        C611   1.484       .  S
N589        C590   1.356       .  A
C590        N591   1.361       .  A
N591        C592   1.360       .  A
C592        N593   1.358       .  A
In594       O597   2.228       .  S
In594       O599   2.219       .  S
In594       O601   2.225       .  S
In594       O602   2.228       .  S
In594       O603   2.250       .  S
In594       O606   2.247       .  S
C595        C692   1.479       .  S
C595        O601   1.261       .  A
C595        O603   1.265       .  A
O596        C604   1.264       .  A
C598        C668   1.473       .  S
C598        O605   1.265       .  A
C600        C620   1.477   1_655  S
C600        O602   1.260       .  A
C600        O606   1.265       .  A
C604        C635   1.475   1_655  S
C607        C608   1.402       .  A
C607        C612   1.402       .  A
C607        H617   1.084       .  S
C608        C613   1.477       .  S
C608        C609   1.409       .  A
C609        C610   1.395       .  A
C609        S614   1.804       .  S
C610        C611   1.406       .  A
C610        H615   1.084       .  S
C611        C612   1.418       .  A
C612        S616   1.803       .  S
C613        C618   1.409       .  A
C613        C622   1.400       .  A
S614        H630   1.405       .  S
S616        H627   1.407       .  S
C618        C619   1.402       .  A
C618        S623   1.806       .  S
C619        C620   1.403       .  A
C619        H624   1.083       .  S
C620        C621   1.416       .  A
C621        C622   1.399       .  A
C621        S625   1.804   1_455  S
C622        H626   1.084       .  S
S623        H628   1.407       .  S
S625        H629   1.407       .  S
C631        C898   1.401       .  A
C631        C636   1.397       .  A
C631        H641   1.084       .  S
C632        C637   1.478       .  S
C632        C897   1.401       .  A
C632        C633   1.413       .  A
C633        C634   1.400   1_554  A
C633        S638   1.806       .  S
C634        C901   1.405       .  A
C634        H639   1.084   1_455  S
C635        C900   1.404   1_455  A
C635        C636   1.414       .  A
C636        S640   1.803   1_565  S
C637        C642   1.409       .  A
C637        C646   1.404       .  A
S638        H654   1.405       .  S
S640        H651   1.407       .  S
C642        C643   1.399       .  A
C642        S647   1.808       .  S
C643        C644   1.405       .  A
C643        H648   1.083       .  S
C644        C645   1.413       .  A
C645        C646   1.400       .  A
C645        S649   1.804       .  S
C646        H650   1.084       .  S
S647        H652   1.407       .  S
S649        H653   1.407       .  S
C655        C656   1.403       .  A
C655        C660   1.403       .  A
C655        H665   1.083       .  S
C656        C661   1.477       .  S
C656        C657   1.411       .  A
C657        C658   1.397       .  A
C657        S662   1.805       .  S
C658        C659   1.403       .  A
C658        H663   1.084       .  S
C659        C660   1.411       .  A
C660        S664   1.808       .  S
C661        C666   1.409       .  A
C661        C670   1.400       .  A
S662        H678   1.406       .  S
S664        H675   1.407   1_565  S
C666        C667   1.403       .  A
C666        S671   1.807       .  S
C667        C668   1.404       .  A
C667        H672   1.083       .  S
C668        C669   1.414       .  A
C669        C670   1.397       .  A
C669        S673   1.804   1_565  S
C670        H674   1.084       .  S
S671        H676   1.406       .  S
S673        H677   1.407       .  S
C679        C680   1.400       .  A
C679        C684   1.396       .  A
C679        H689   1.084       .  S
C680        C685   1.477       .  S
C680        C681   1.411       .  A
C681        C682   1.402       .  A
C681        S686   1.805       .  S
C682        C683   1.407       .  A
C682        H687   1.083       .  S
C683        C684   1.418       .  A
C684        S688   1.804       .  S
C685        C690   1.406       .  A
C685        C960   1.401   1_554  A
S686        H702   1.403       .  S
S688        H699   1.408       .  S
C690        C691   1.402       .  A
C690        S695   1.806       .  S
C691        C958   1.407   1_554  A
C691        H696   1.083       .  S
C692        C957   1.405       .  A
C692        C693   1.415       .  A
C693        C694   1.401       .  A
C693        S697   1.802       .  S
C694        C951   1.403       .  A
C694        H698   1.084       .  S
S695        H700   1.407       .  S
S697        H701   1.407       .  S
C703        C704   1.401       .  A
C703        C974   1.397   1_554  A
C703        H713   1.084       .  S
C704        C709   1.473       .  S
C704        C705   1.411   1_554  A
C705        C972   1.396       .  A
C705        S710   1.805       .  S
C706        C971   1.396       .  A
C706        C707   1.404       .  A
C706        H711   1.084       .  S
C707        C708   1.414       .  A
C708        C969   1.398       .  A
C708        S712   1.799       .  S
C709        C714   1.409       .  A
C709        C718   1.399       .  A
S710        H726   1.405       .  S
S712        H723   1.407       .  S
C714        C715   1.402       .  A
C714        S719   1.806       .  S
C715        C716   1.403       .  A
C715        H720   1.083       .  S
C716        C717   1.414       .  A
C717        C718   1.394       .  A
C717        S721   1.804   1_565  S
C718        H722   1.084       .  S
S719        H724   1.407       .  S
S721        H725   1.407   1_545  S
C727        C728   1.399       .  A
C727        C732   1.394       .  A
C727        H737   1.084       .  S
C728        C733   1.476       .  S
C728        C729   1.408       .  A
C729        C730   1.400       .  A
C729        S734   1.804       .  S
C730        C731   1.411       .  A
C730        H735   1.083       .  S
C731        C732   1.420       .  A
C732        S736   1.803       .  S
C733        C738   1.406       .  A
C733        C742   1.403       .  A
S734        H750   1.406       .  S
S736        H747   1.408       .  S
C738        C739   1.397       .  A
C738        S743   1.807       .  S
C739        C740   1.405       .  A
C739        H744   1.083       .  S
C740        C741   1.413       .  A
C741        C742   1.400       .  A
C741        S745   1.801       .  S
C742        H746   1.084       .  S
S743        H748   1.407       .  S
S745        H749   1.407       .  S
C751        C752   1.402       .  A
C751        C756   1.400       .  A
C751        H761   1.084       .  S
C752        C757   1.474       .  S
C752        C753   1.412       .  A
C753        C754   1.394       .  A
C753        S758   1.805       .  S
C754        C755   1.402       .  A
C754        H759   1.084       .  S
C755        C756   1.413       .  A
C756        S760   1.799       .  S
C757        C762   1.409       .  A
C757        C766   1.399       .  A
S758        H774   1.405       .  S
S760        H771   1.407       .  S
C762        C763   1.401       .  A
C762        S767   1.807       .  S
C763        C764   1.404       .  A
C763        H768   1.083       .  S
C764        C765   1.416       .  A
C765        C766   1.397       .  A
C765        S769   1.803   1_565  S
C766        H770   1.084       .  S
S767        H772   1.407       .  S
S769        H773   1.407       .  S
C775        C776   1.401       .  A
C775        C780   1.400       .  A
C775        H785   1.083       .  S
C776        C781   1.473       .  S
C776        C777   1.413       .  A
C777        C778   1.397       .  A
C777        S782   1.805       .  S
C778        C779   1.400       .  A
C778        H783   1.084       .  S
C779        C780   1.411       .  A
C780        S784   1.808       .  S
C781       C1052   1.407   1_554  A
C781        C790   1.402       .  A
S782        H798   1.405       .  S
S784        H795   1.407       .  S
C786       C1047   1.407       .  A
C786        C787   1.398       .  A
C786        S791   1.807       .  S
C787        C788   1.404       .  A
C787        H792   1.083       .  S
C788       C1055   1.413       .  A
C789       C1054   1.413       .  A
C789        C790   1.399   1_556  A
C789        S793   1.802       .  S
C790        H794   1.084       .  S
S791        H796   1.407       .  S
S793       H1063   1.407       .  S
H797       S1059   1.407       .  S
C799        N800   1.354       .  A
C799        N804   1.355       .  A
C799       C1045   1.468       .  S
N800        C801   1.356       .  A
C801        N802   1.362       .  A
N802        C803   1.364       .  A
C803        N804   1.356       .  A
C803        C838   1.464       .  S
C805        N806   1.356       .  A
C805        N810   1.356       .  A
C805       C1030   1.474       .  S
N806        C807   1.355       .  A
C807        N808   1.361       .  A
C807        C844   1.459       .  S
N808        C809   1.360   1_565  A
C809        N810   1.358   1_545  A
C811        N812   1.358       .  A
C811        N816   1.358       .  A
C811        C997   1.488       .  S
N812        C813   1.357       .  A
C813        N814   1.359       .  A
C813        C856   1.462       .  S
N814        C815   1.357       .  A
C815        N816   1.357       .  A
C817        N818   1.357       .  A
C817        N822   1.357       .  A
C817        C982   1.470       .  S
N818        C819   1.357       .  A
C819        N820   1.359       .  A
C819        C850   1.461       .  S
N820        C821   1.359       .  A
C821        N822   1.356       .  A
In823       O825   2.253       .  S
In823       O826   2.203       .  S
In823       O834   2.246       .  S
In823       O828   2.210       .  S
In823       O830   2.216       .  S
In823       O831   2.224       .  S
In823       O832   2.236       .  S
In823       O835   2.237       .  S
C824       C1021   1.470       .  S
C824        O830   1.261       .  A
C824        O832   1.263       .  A
O825        C833   1.266       .  A
O826        C833   1.260       .  A
C827       C1054   1.473       .  S
C827        O834   1.266       .  A
C827        O828   1.260       .  A
C829        C973   1.475       .  S
C829        O831   1.261       .  A
C829        O835   1.262       .  A
C833       C1006   1.476       .  S
C836        N837   1.358       .  A
C836        N841   1.357       .  A
C836        C949   1.478       .  S
N837        C838   1.356       .  A
C838        N839   1.362       .  A
N839        C840   1.361       .  A
C840        N841   1.358       .  A
C840        C846   1.469       .  S
C842        N843   1.355       .  A
C842        N847   1.358       .  A
C842        C925   1.473       .  S
N843        C844   1.354       .  A
C844        N845   1.361       .  A
N845        C846   1.360       .  A
C846        N847   1.358       .  A
C848        N849   1.357       .  A
C848        N853   1.356       .  A
C848        C910   1.473       .  S
N849        C850   1.357       .  A
C850        N851   1.361       .  A
N851        C852   1.360       .  A
C852        N853   1.356       .  A
C852        C858   1.467       .  S
C854        N855   1.358       .  A
C854        N859   1.357       .  A
C854        C877   1.486       .  S
N855        C856   1.356       .  A
C856        N857   1.360       .  A
N857        C858   1.360       .  A
C858        N859   1.359       .  A
In860       O863   2.226       .  S
In860       O865   2.222       .  S
In860       O867   2.225       .  S
In860       O868   2.226       .  S
In860       O869   2.248       .  S
In860       O872   2.252       .  S
C861        C958   1.480       .  S
C861        O867   1.261       .  A
C861        O869   1.265       .  A
O862        C870   1.263       .  A
C864        C934   1.473       .  S
C864        O871   1.265       .  A
C866        C886   1.478   1_655  S
C866        O868   1.260       .  A
C866        O872   1.265       .  A
C870        C901   1.477   1_655  S
C873        C874   1.402       .  A
C873        C878   1.403       .  A
C873        H883   1.084       .  S
C874        C879   1.478       .  S
C874        C875   1.409       .  A
C875        C876   1.395       .  A
C875        S880   1.804       .  S
C876        C877   1.406       .  A
C876        H881   1.084       .  S
C877        C878   1.418       .  A
C878        S882   1.803       .  S
C879        C884   1.409       .  A
C879        C888   1.400       .  A
S880        H896   1.405       .  S
S882        H893   1.407       .  S
C884        C885   1.404       .  A
C884        S889   1.806       .  S
C885        C886   1.403       .  A
C885        H890   1.083       .  S
C886        C887   1.416       .  A
C887        C888   1.399       .  A
C887        S891   1.804   1_455  S
C888        H892   1.084       .  S
S889        H894   1.407       .  S
S891        H895   1.407       .  S
C897        C902   1.397   1_554  A
C897        H907   1.084       .  S
C898        C903   1.477       .  S
C898        C899   1.413       .  A
C899        C900   1.399   1_455  A
C899        S904   1.806   1_455  S
C900        H905   1.084       .  S
C901        C902   1.414       .  A
C902        S906   1.803   1_565  S
C903        C908   1.408       .  A
C903        C912   1.404       .  A
S904        H920   1.405   1_655  S
S906        H917   1.407       .  S
C908        C909   1.399       .  A
C908        S913   1.808       .  S
C909        C910   1.404       .  A
C909        H914   1.083       .  S
C910        C911   1.412       .  A
C911        C912   1.400       .  A
C911        S915   1.804       .  S
C912        H916   1.084       .  S
S913        H918   1.407       .  S
S915        H919   1.407       .  S
C921        C922   1.403       .  A
C921        C926   1.403       .  A
C921        H931   1.083       .  S
C922        C927   1.477       .  S
C922        C923   1.411       .  A
C923        C924   1.397       .  A
C923        S928   1.805       .  S
C924        C925   1.403       .  A
C924        H929   1.084       .  S
C925        C926   1.411       .  A
C926        S930   1.808       .  S
C927        C932   1.409       .  A
C927        C936   1.400       .  A
S928        H944   1.405       .  S
S930        H941   1.407   1_565  S
C932        C933   1.403       .  A
C932        S937   1.807       .  S
C933        C934   1.404       .  A
C933        H938   1.083       .  S
C934        C935   1.414       .  A
C935        C936   1.397       .  A
C935        S939   1.805   1_565  S
C936        H940   1.084       .  S
S937        H942   1.407       .  S
S939        H943   1.407       .  S
C945        C946   1.401       .  A
C945        C950   1.397       .  A
C945        H955   1.084       .  S
C946        C951   1.481       .  S
C946        C947   1.413       .  A
C947        C948   1.402       .  A
C947        S952   1.804       .  S
C948        C949   1.405       .  A
C948        H953   1.084       .  S
C949        C950   1.415       .  A
C950        S954   1.804       .  S
C951        C956   1.409       .  A
S952        H968   1.405       .  S
S954        H965   1.407       .  S
C956        C957   1.402       .  A
C956        S961   1.807       .  S
C957        H962   1.083       .  S
C958        C959   1.415       .  A
C959        C960   1.400       .  A
C959        S963   1.801       .  S
C960        H964   1.084       .  S
S961        H966   1.407       .  S
S963        H967   1.408       .  S
C969        C970   1.401       .  A
C969        H979   1.084       .  S
C970        C975   1.474       .  S
C970        C971   1.411       .  A
C971        S976   1.805       .  S
C972        C973   1.404       .  A
C972        H977   1.084       .  S
C973        C974   1.414       .  A
C974        S978   1.799       .  S
C975        C980   1.409       .  A
C975        C984   1.399       .  A
S976        H992   1.405       .  S
S978        H989   1.407       .  S
C980        C981   1.403       .  A
C980        S985   1.806       .  S
C981        C982   1.403       .  A
C981        H986   1.083       .  S
C982        C983   1.414       .  A
C983        C984   1.395       .  A
C983        S987   1.804   1_565  S
C984        H988   1.084       .  S
S985        H990   1.407       .  S
S987        H991   1.407   1_545  S
C993        C994   1.400       .  A
C993        C998   1.395       .  A
C993       H1003   1.084       .  S
C994        C999   1.477       .  S
C994        C995   1.408       .  A
C995        C996   1.401       .  A
C995       S1000   1.804       .  S
C996        C997   1.410       .  A
C996       H1001   1.083       .  S
C997        C998   1.420       .  A
C998       S1002   1.802       .  S
C999       C1004   1.406       .  A
C999       C1008   1.404       .  A
S1000      H1016   1.406       .  S
S1002      H1013   1.408       .  S
C1004      C1005   1.397       .  A
C1004      S1009   1.807       .  S
C1005      C1006   1.406       .  A
C1005      H1010   1.083       .  S
C1006      C1007   1.414       .  A
C1007      C1008   1.401       .  A
C1007      S1011   1.801       .  S
C1008      H1012   1.084       .  S
S1009      H1014   1.407       .  S
S1011      H1015   1.407       .  S
C1017      C1018   1.401       .  A
C1017      C1022   1.399       .  A
C1017      H1027   1.084       .  S
C1018      C1023   1.473       .  S
C1018      C1019   1.411       .  A
C1019      C1020   1.394       .  A
C1019      S1024   1.805       .  S
C1020      C1021   1.402       .  A
C1020      H1025   1.084       .  S
C1021      C1022   1.413       .  A
C1022      S1026   1.799       .  S
C1023      C1028   1.409       .  A
C1023      C1032   1.399       .  A
S1024      H1040   1.405       .  S
S1026      H1037   1.407       .  S
C1028      C1029   1.401       .  A
C1028      S1033   1.807       .  S
C1029      C1030   1.404       .  A
C1029      H1034   1.083       .  S
C1030      C1031   1.416       .  A
C1031      C1032   1.397       .  A
C1031      S1035   1.803   1_565  S
C1032      H1036   1.084       .  S
S1033      H1038   1.407       .  S
S1035      H1039   1.407       .  S
C1041      C1042   1.400       .  A
C1041      C1046   1.400       .  A
C1041      H1051   1.083       .  S
C1042      C1047   1.473       .  S
C1042      C1043   1.413       .  A
C1043      C1044   1.398       .  A
C1043      S1048   1.805       .  S
C1044      C1045   1.400       .  A
C1044      H1049   1.084       .  S
C1045      C1046   1.411       .  A
C1046      S1050   1.808       .  S
C1047      C1056   1.402       .  A
S1048      H1064   1.405       .  S
S1050      H1061   1.407       .  S
C1052      C1053   1.398       .  A
C1052      S1057   1.808       .  S
C1053      C1054   1.404       .  A
C1053      H1058   1.083       .  S
C1055      C1056   1.399       .  A
C1055      S1059   1.802       .  S
C1056      H1060   1.084       .  S
S1057      H1062   1.407       .  S
