geometry optimzed in LAMMPS
_audit_creation_date              2020-11-30 
_audit_creation_method            'lammps2cif' 
_symmetry_space_group_name_H-M    'P1' 
_symmetry_Int_Tables_number       1 
_symmetry_cell_setting            triclinic 
loop_ 
_symmetry_equiv_pos_as_xyz 
  x,y,z 
_cell_length_a                    33.34391899 
_cell_length_b                    34.06289964762595 
_cell_length_c                    32.821732478451274 
_cell_angle_alpha                 90.09478285636469 
_cell_angle_beta                  89.87194754810153 
_cell_angle_gamma                 89.9873696940374 
loop_ 
_atom_site_label 
_atom_site_type_symbol 
_atom_site_fract_x 
_atom_site_fract_y 
_atom_site_fract_z 
_atom_site_charge 
O1          O  0.55702159  0.94020334  0.49857321    -0.79600
O2          O  0.44990950  0.93370312  0.50459806    -0.79600
O3          O  0.52818359  0.97765829  0.60695872    -0.79600
O4          O  0.49324830  0.95376017  0.43591473    -0.79600
O5          O  0.49381408  0.93155739  0.57598541    -0.79700
O6          O  0.55566634  0.96724066  0.41814501    -0.79600
O7          O  0.42041117  0.97228779  0.46254211    -0.79600
O8          O  0.58468359  0.97692463  0.54670167    -0.79600
C9          C  0.58607557  0.94720535  0.52232644     1.10100
C10         C  0.41935477  0.94159000  0.48359824     1.10000
C11         C  0.51884440  0.94169359  0.60320775     1.10100
C12         C  0.52271572  0.94905526  0.41135636     1.10000
O13         O  0.52729626  0.03961258  0.44378949    -0.79600
O14         O  0.45680517  0.00469533  0.59869568    -0.79700
O15         O  0.55602385  0.05531109  0.52207950    -0.79600
O16         O  0.45078942  0.04876656  0.49110026    -0.79600
O17         O  0.41357927  0.00958739  0.52779494    -0.79600
O18         O  0.59024854  0.01671777  0.48336521    -0.79600
O19         O  0.47291725  0.02828900  0.41230825    -0.79500
O20         O  0.49692862  0.05323874  0.58142001    -0.79600
Co21       Co  0.53825640  0.98746435  0.47094599     1.51500
Co22       Co  0.45648293  0.97047915  0.54994429     1.51700
Co23       Co  0.53979838  0.01614395  0.56222190     1.51600
Co24       Co  0.47086195  0.00126951  0.46549575     1.51500
O25         O  0.50260666  0.99684068  0.51871151    -1.41500
C26         C  0.50569915  0.04545117  0.41280695     1.10000
C27         C  0.46543642  0.04081377  0.59910994     1.10100
C28         C  0.58936289  0.04663085  0.50678002     1.10100
C29         C  0.41703854  0.04078789  0.50586355     1.10000
O30         O  0.94097541  0.56667802  0.49948288    -0.79600
O31         O  0.94289906  0.46557483  0.48832318    -0.79600
O32         O  0.95744374  0.52795541  0.42788094    -0.79600
O33         O  0.98419834  0.48243344  0.59408282    -0.79600
O34         O  0.96815689  0.46788818  0.40701179    -0.79700
O35         O  0.93714712  0.51956878  0.56807639    -0.79600
O36         O  0.98112211  0.43076959  0.52880959    -0.79600
O37         O  0.98106675  0.59670183  0.45962802    -0.79600
C38         C  0.95019867  0.59818822  0.48235217     1.10100
C39         C  0.94995951  0.43333586  0.50555939     1.10000
C40         C  0.95071077  0.50080763  0.40177588     1.10100
C41         C  0.94777595  0.49249467  0.59254166     1.10000
O42         O  0.01329314  0.55249837  0.59352976    -0.79600
O43         O  0.04221815  0.49683906  0.42899341    -0.79700
O44         O  0.05807917  0.56692837  0.47964821    -0.79600
O45         O  0.06262685  0.46064443  0.50759070    -0.79600
O46         O  0.02148066  0.43183791  0.46669673    -0.79600
O47         O  0.02026953  0.59841996  0.52502860    -0.79600
O48         O  0.06119040  0.51215773  0.57290689    -0.79500
O49         O  0.03053573  0.55371088  0.40004956    -0.79600
Co50       Co  0.97781892  0.55743126  0.54463304     1.51500
Co51       Co  0.99048904  0.48380486  0.45952535     1.51700
Co52       Co  0.01024193  0.54395640  0.45533154     1.51600
Co53       Co  0.02213141  0.47363876  0.54845031     1.51500
O54         O  0.00210688  0.51545425  0.50984199    -1.41500
C55         C  0.04916464  0.54014185  0.59568364     1.10000
C56         C  0.04791194  0.52030330  0.39911141     1.10100
C57         C  0.05129482  0.59713192  0.50119122     1.10100
C58         C  0.05378029  0.43058386  0.48751321     1.10000
O59         O  0.43780639  0.50839536  0.06838985    -0.79600
O60         O  0.57481463  0.48946850  0.06133526    -0.79600
O61         O  0.46151435  0.42684498  0.05389717    -0.79600
O62         O  0.54719948  0.57036456  0.04167543    -0.79600
O63         O  0.51861309  0.43453447  0.08407139    -0.79700
O64         O  0.49164105  0.56720545  0.07610698    -0.79600
O65         O  0.59696186  0.52129973  0.00894814    -0.79600
O66         O  0.40883424  0.47169074  0.02385594    -0.79600
C67         C  0.40588917  0.49397209  0.05527953     1.10100
C68         C  0.60443895  0.50071131  0.04076646     1.10000
C69         C  0.48354482  0.42074396  0.08406460     1.10100
C70         C  0.52672777  0.58015076  0.07214516     1.10000
O71         O  0.48668608  0.58303371  0.98787151    -0.79600
O72         O  0.51451997  0.40808181  0.99761788    -0.79700
O73         O  0.46088246  0.48389525  0.95061478    -0.79600
O74         O  0.53947076  0.50340136  0.94449986    -0.79600
O75         O  0.57400493  0.45925778  0.97765793    -0.79600
O76         O  0.42532797  0.52821427  0.98151653    -0.79600
O77         O  0.54849885  0.58209868  0.96158977    -0.79500
O78         O  0.45092296  0.40758203  0.97673868    -0.79600
Co79       Co  0.46297977  0.54347379  0.02901070     1.51500
Co80       Co  0.54291974  0.45122161  0.03099428     1.51700
Co81       Co  0.46565632  0.45613859  0.00232169     1.51600
Co82       Co  0.53843043  0.53595311  0.99379991     1.51500
O83         O  0.50316749  0.49736691  0.02289894    -1.41500
C84         C  0.51369051  0.59801078  0.96412287     1.10000
C85         C  0.48554442  0.39132512  0.97803197     1.10100
C86         C  0.42951816  0.50430893  0.95169163     1.10100
C87         C  0.56841584  0.47954280  0.94538519     1.10000
N88         N  0.60254344  0.85430858  0.76480018    -0.02900
C89         C  0.58795907  0.85835168  0.80357483    -0.00300
C90         C  0.54796182  0.84746387  0.80439542    -0.23200
C91         C  0.53597670  0.84278362  0.76491143    -0.23400
C92         C  0.56933217  0.84957802  0.74089062    -0.00400
H93         H  0.52749112  0.85196356  0.82956475     0.13400
H94         H  0.50507116  0.84158336  0.75498519     0.13400
C95         C  0.80253771  0.72388479  0.72435857     0.03700
C96         C  0.77116023  0.75168569  0.72662832    -0.12500
C97         C  0.73739692  0.74567120  0.75187990     0.01200
C98         C  0.73489223  0.71049699  0.77460841    -0.11000
C99         C  0.76525934  0.68148858  0.77339311     0.03700
C100        C  0.79940568  0.68905894  0.74825950    -0.10400
H101        H  0.77296752  0.77808559  0.70836357     0.09300
H102        H  0.70850660  0.70554866  0.79316444     0.06800
H103        H  0.82368306  0.66802351  0.74715191     0.06600
N104        N  0.94070782  0.74688083  0.61657563    -0.02900
C105        C  0.97615540  0.76440995  0.62824920    -0.00300
C106        C  0.00612815  0.73601617  0.63006628    -0.23200
C107        C  0.99083375  0.70262090  0.61352389    -0.23400
C108        C  0.95208108  0.71100349  0.60226586    -0.00400
H109        H  0.03776328  0.73955199  0.63533681     0.13400
H110        H  0.00839289  0.67755484  0.60378661     0.13400
N111        N  0.74041923  0.53759156  0.86986818    -0.02900
C112        C  0.77501026  0.51836105  0.87963295    -0.00300
C113        C  0.77704080  0.48274879  0.85954632    -0.23200
C114        C  0.74024712  0.47694630  0.84231671    -0.23400
C115        C  0.71648848  0.50826442  0.85463488    -0.00400
H116        H  0.80006644  0.46060704  0.86282328     0.13400
H117        H  0.72966588  0.44882982  0.83128607     0.13400
C118        C  0.27186583  0.24654809  0.75614287     0.03700
C119        C  0.27011478  0.27439030  0.78765834    -0.12500
C120        C  0.24409756  0.30705102  0.78526060     0.01200
C121        C  0.21923692  0.31113922  0.75064355    -0.11000
C122        C  0.22086400  0.28331950  0.71871996     0.03700
C123        C  0.24737785  0.25134609  0.72186084    -0.10400
H124        H  0.28875708  0.27036853  0.81434056     0.09300
H125        H  0.19857756  0.33559617  0.74866430     0.06800
H126        H  0.24826776  0.22948055  0.69782837     0.06600
N127        N  0.25586526  0.40897961  0.92582645    -0.02900
C128        C  0.29532423  0.41321606  0.93615840    -0.00300
C129        C  0.30116115  0.40262964  0.97630597    -0.23200
C130        C  0.26413519  0.39599278  0.99276842    -0.23400
C131        C  0.23660319  0.40189380  0.96198253    -0.00400
H132        H  0.32868652  0.40576032  0.99343310     0.13400
H133        H  0.25766597  0.39267800  0.02490923     0.13400
N134        N  0.35473546  0.09870121  0.75104041    -0.02900
C135        C  0.34871364  0.06949204  0.77862409    -0.00300
C136        C  0.33446177  0.03618375  0.75951754    -0.23200
C137        C  0.33464459  0.04396678  0.71865174    -0.23400
C138        C  0.34994432  0.08151613  0.71392265    -0.00400
H139        H  0.33109531  0.00733996  0.77288619     0.13400
H140        H  0.33205333  0.02180425  0.69510921     0.13400
N141        N  0.12879369  0.26832611  0.57174802    -0.02900
C142        C  0.13585442  0.28682016  0.53545135    -0.00300
C143        C  0.14513130  0.25960977  0.50557398    -0.23200
C144        C  0.14052421  0.22337138  0.52264964    -0.23400
C145        C  0.12878537  0.22934396  0.56255791    -0.00400
H146        H  0.14805874  0.26530061  0.47325920     0.13400
H147        H  0.13908501  0.19598028  0.50592660     0.13400
O148        O  0.48655100  0.03519105  0.91338048    -0.79600
O149        O  0.45494676  0.98649176  0.07891667    -0.79600
O150        O  0.43696036  0.95033584  0.00504540    -0.79600
O151        O  0.44149742  0.05131422  0.02632538    -0.79600
O152        O  0.47568496  0.91848765  0.04475715    -0.79700
O153        O  0.47876386  0.08273025  0.98061763    -0.79600
O154        O  0.47022082  0.04316958  0.10611578    -0.79600
O155        O  0.43805781  0.99805033  0.93733175    -0.79600
C156        C  0.45031997  0.02405362  0.91245016     1.10100
C157        C  0.45084147  0.01099812  0.10815455     1.10000
C158        C  0.44520769  0.91825943  0.02142578     1.10100
C159        C  0.44742939  0.08102577  0.00410243     1.10000
O160        O  0.55881882  0.05110327  0.00668089    -0.79600
O161        O  0.55483784  0.94761541  0.02559657    -0.79700
O162        O  0.51370588  0.96429946  0.91473493    -0.79600
O163        O  0.54237611  0.01477935  0.07885754    -0.79600
O164        O  0.52829726  0.95720623  0.10478333    -0.79600
O165        O  0.56176093  0.00231419  0.93888030    -0.79600
O166        O  0.51874663  0.08290863  0.04500619    -0.79500
O167        O  0.51616601  0.91650290  0.98158696    -0.79600
Co168      Co  0.52179380  0.04126349  0.96192831     1.51500
Co169      Co  0.50714970  0.97007223  0.05094021     1.51700
Co170      Co  0.47597276  0.95911279  0.96164342     1.51600
Co171      Co  0.48984070  0.03031811  0.05137109     1.51500
O172        O  0.49856315  0.00024700  0.99829607    -1.41500
C173        C  0.54988196  0.08320435  0.02268841     1.10000
C174        C  0.54709865  0.91709524  0.00522624     1.10100
C175        C  0.55022234  0.97459345  0.91543343     1.10100
C176        C  0.54816813  0.98922759  0.10675191     1.10000
C177        C  0.29721571  0.78084179  0.78482664     0.03700
C178        C  0.29902980  0.80817274  0.75216298    -0.12500
C179        C  0.26742770  0.81078688  0.72360043     0.01200
C180        C  0.23382026  0.78622203  0.72844974    -0.11000
C181        C  0.23150745  0.75899779  0.76040777     0.03700
C182        C  0.26304367  0.75671218  0.78861023    -0.10400
H183        H  0.32537284  0.82639564  0.74825946     0.09300
H184        H  0.20978996  0.78736365  0.70628009     0.06800
H185        H  0.26157450  0.73507470  0.81273360     0.06600
N186        N  0.43237039  0.76383758  0.89414056    -0.02900
C187        C  0.44503835  0.80079599  0.90271809    -0.00300
C188        C  0.48405374  0.80591622  0.89001794    -0.23200
C189        C  0.49795705  0.76988285  0.87846106    -0.23400
C190        C  0.46665434  0.74366139  0.88432222    -0.00400
H191        H  0.50228978  0.83161972  0.89501740     0.13400
H192        H  0.52929089  0.76317522  0.87354988     0.13400
N193        N  0.25036671  0.90015445  0.57491608    -0.02900
C194        C  0.21083382  0.90721583  0.56753232    -0.00300
C195        C  0.19975782  0.89067616  0.53068115    -0.23200
C196        C  0.23420355  0.87865987  0.51190823    -0.23400
C197        C  0.26512470  0.88696729  0.53849898    -0.00400
H198        H  0.17135080  0.89485224  0.51538635     0.13400
H199        H  0.23695682  0.87104982  0.47998604     0.13400
N200        N  0.09321408  0.65669673  0.75169153    -0.02900
C201        C  0.05808638  0.66492936  0.77188239    -0.00300
C202        C  0.02764664  0.67091254  0.74381500    -0.23200
C203        C  0.04300182  0.66220089  0.70641617    -0.23400
C204        C  0.08212721  0.65036236  0.71213756    -0.00400
H205        H  0.99599232  0.67485180  0.74946499     0.13400
H206        H  0.02502428  0.65678628  0.67957140     0.13400
C207        C  0.76044162  0.27605733  0.19624452     0.03700
C208        C  0.73237751  0.24494169  0.19997938    -0.12500
C209        C  0.73328742  0.21903189  0.23361245     0.01200
C210        C  0.76276932  0.22453063  0.26388566    -0.11000
C211        C  0.79076337  0.25554399  0.26154967     0.03700
C212        C  0.78895301  0.28122497  0.22766526    -0.10400
H213        H  0.70993431  0.24064279  0.17660568     0.09300
H214        H  0.76414961  0.20421435  0.28921525     0.06800
H215        H  0.81025992  0.30511867  0.22539802     0.06600
N216        N  0.91441647  0.27474678  0.38578943    -0.02900
C217        C  0.94789568  0.25209035  0.38016682    -0.00300
C218        C  0.98162598  0.27532618  0.37632843    -0.23200
C219        C  0.96939377  0.31305696  0.38260472    -0.23400
C220        C  0.92914734  0.31170679  0.39278379    -0.00400
H221        H  0.01255448  0.26596787  0.37479910     0.13400
H222        H  0.98935505  0.33757549  0.38768073     0.13400
N223        N  0.76624864  0.37726137  0.05226440    -0.02900
C224        C  0.78863099  0.36588512  0.01898533    -0.00300
C225        C  0.76354344  0.35994452  0.98579963    -0.23200
C226        C  0.72660742  0.37317282  0.99675366    -0.23400
C227        C  0.72961625  0.38650522  0.03626944    -0.00400
H228        H  0.77144537  0.35270781  0.95479573     0.13400
H229        H  0.70224144  0.37892647  0.97583289     0.13400
N230        N  0.62870532  0.08381055  0.26004603    -0.02900
C231        C  0.63834855  0.04711599  0.24599531    -0.00300
C232        C  0.64926968  0.02336828  0.27829939    -0.23200
C233        C  0.63935227  0.04340909  0.31293922    -0.23400
C234        C  0.62186380  0.07827255  0.30068405    -0.00400
H235        H  0.65680434  0.99250083  0.27719431     0.13400
H236        H  0.63602192  0.02981249  0.34256806     0.13400
O237        O  0.92184982  0.55492458  0.99056430    -0.79600
O238        O  0.05951937  0.57060548  0.00027719    -0.79600
O239        O  0.95449495  0.54188387  0.07145527    -0.79600
O240        O  0.03117302  0.54925204  0.91649647    -0.79600
O241        O  0.00643030  0.57896521  0.06194162    -0.79700
O242        O  0.97474904  0.57783886  0.93055604    -0.79600
O243        O  0.08755027  0.52704048  0.96058120    -0.79600
O244        O  0.90564300  0.50390837  0.02573415    -0.79600
C245        C  0.89452568  0.53321640  0.00408514     1.10100
C246        C  0.09010303  0.55889288  0.98145653     1.10000
C247        C  0.97236697  0.57371979  0.07724536     1.10100
C248        C  0.00852547  0.57844011  0.91306549     1.10000
O249        O  0.97986834  0.49442173  0.90457953    -0.79600
O250        O  0.01909474  0.49440915  0.08433408    -0.79700
O251        O  0.96794412  0.44601869  0.00704302    -0.79600
O252        O  0.04707477  0.45307430  0.98091930    -0.79600
O253        O  0.07706176  0.49075884  0.02547591    -0.79600
O254        O  0.92734829  0.47268203  0.96226969    -0.79600
O255        O  0.04328109  0.47410786  0.89872889    -0.79500
O256        O  0.95903894  0.46576532  0.08778213    -0.79600
Co257      Co  0.95338066  0.52619226  0.95003363     1.51500
Co258      Co  0.03756209  0.53390600  0.03982810     1.51700
Co259      Co  0.96576876  0.49458219  0.03829195     1.51600
Co260      Co  0.03278362  0.50068386  0.95002974     1.51500
O261        O  0.99674422  0.52154728  0.99444139    -1.41500
C262        C  0.00727698  0.47565007  0.88497906     1.10000
C263        C  0.99441910  0.47027851  0.10189210     1.10100
C264        C  0.93766005  0.44333253  0.98429538     1.10100
C265        C  0.07694963  0.45974665  0.00361628     1.10000
N266        N  0.26047649  0.07617455  0.38241941    -0.02900
C267        C  0.24087357  0.04205139  0.37320587    -0.00300
C268        C  0.26787479  0.01342023  0.36130434    -0.23200
C269        C  0.30506433  0.02795397  0.36949607    -0.23400
C270        C  0.29944965  0.06468329  0.38661392    -0.00400
H271        H  0.26125293  0.98288224  0.35508032     0.13400
H272        H  0.33191237  0.01020476  0.37168591     0.13400
C273        C  0.25357742  0.21135845  0.27375822     0.03700
C274        C  0.28376531  0.21311292  0.24334059    -0.12500
C275        C  0.28462140  0.24358695  0.21408049     0.01200
C276        C  0.25473734  0.27304842  0.21620359    -0.11000
C277        C  0.22451653  0.27248946  0.24642075     0.03700
C278        C  0.22442973  0.24150102  0.27518460    -0.10400
H279        H  0.30616855  0.19011417  0.24188880     0.09300
H280        H  0.25525021  0.29694677  0.19447637     0.06800
H281        H  0.20094817  0.24021537  0.29800690     0.06600
N282        N  0.09645782  0.39036804  0.25614681    -0.02900
C283        C  0.06107442  0.38045281  0.23763154    -0.00300
C284        C  0.03271757  0.37147791  0.26712689    -0.23200
C285        C  0.04794602  0.38432263  0.30336233    -0.23400
C286        C  0.08495346  0.40056622  0.29481661    -0.00400
H287        H  0.00114076  0.36591943  0.26228729     0.13400
H288        H  0.02990204  0.39028822  0.33015547     0.13400
N289        N  0.40389571  0.25268332  0.08406532    -0.02900
C290        C  0.43046491  0.28321611  0.08256234    -0.00300
C291        C  0.44776784  0.28602944  0.04458270    -0.23200
C292        C  0.43230012  0.25649982  0.02164756    -0.23400
C293        C  0.40599454  0.23539317  0.04609206    -0.00400
H294        H  0.46924545  0.30778907  0.03444986     0.13400
H295        H  0.44227171  0.24963446  0.99113228     0.13400
C296        C  0.74566548  0.20715565  0.73242317     0.03700
C297        C  0.71199737  0.20920612  0.75829747    -0.12500
C298        C  0.70620776  0.24108132  0.78496863     0.01200
C299        C  0.73464197  0.27175466  0.78521774    -0.11000
C300        C  0.76848564  0.27109322  0.75904054     0.03700
C301        C  0.77376841  0.23811935  0.73316371    -0.10400
H302        H  0.69021858  0.18560265  0.75789672     0.09300
H303        H  0.72967466  0.29670509  0.80509727     0.06800
H304        H  0.80020319  0.23594157  0.71412044     0.06600
N305        N  0.86956047  0.41138057  0.75562516    -0.02900
C306        C  0.85384587  0.43851385  0.72951577    -0.00300
C307        C  0.84141878  0.47101441  0.75165058    -0.23200
C308        C  0.85687275  0.46674451  0.79000875    -0.23400
C309        C  0.87918167  0.43244004  0.78958072    -0.00400
H310        H  0.83157152  0.49890242  0.73959863     0.13400
H311        H  0.86057576  0.49081384  0.81127612     0.13400
N312        N  0.56912942  0.23314944  0.89381339    -0.02900
C313        C  0.55820800  0.19527790  0.90001253    -0.00300
C314        C  0.52019913  0.18890386  0.88467647    -0.23200
C315        C  0.50460165  0.22500500  0.87593206    -0.23400
C316        C  0.53401334  0.25226922  0.88566569    -0.00400
H317        H  0.50230642  0.16275236  0.88918109     0.13400
H318        H  0.47293586  0.23023774  0.87162485     0.13400
N319        N  0.75248258  0.07154610  0.62542785    -0.02900
C320        C  0.71440882  0.05828820  0.61957114    -0.00300
C321        C  0.70984306  0.02101837  0.63535196    -0.23200
C322        C  0.74716083  0.00853982  0.64611825    -0.23400
C323        C  0.77333462  0.03853127  0.63603408    -0.00400
H324        H  0.68391329  0.00224744  0.63190379     0.13400
H325        H  0.75510119  0.97830693  0.65227437     0.13400
C326        C  0.71395382  0.76283746  0.23723619     0.03700
C327        C  0.74192588  0.73189255  0.23742279    -0.12500
C328        C  0.77069857  0.72780753  0.26851788     0.01200
C329        C  0.77164651  0.75636547  0.29974695    -0.11000
C330        C  0.74414131  0.78818984  0.30014983     0.03700
C331        C  0.71514201  0.79090205  0.26885281    -0.10400
H332        H  0.74121184  0.71059411  0.21285095     0.09300
H333        H  0.79331242  0.75356807  0.32411309     0.06800
H334        H  0.69380694  0.81489348  0.26895300     0.06600
N335        N  0.76117625  0.89637057  0.43607935    -0.02900
C336        C  0.74383988  0.89036377  0.47344600    -0.00300
C337        C  0.77294796  0.88289325  0.50240153    -0.23200
C338        C  0.80900895  0.88888845  0.48388372    -0.23400
C339        C  0.80093936  0.90085136  0.44460794    -0.00400
H340        H  0.76853910  0.87834430  0.53472362     0.13400
H341        H  0.83747603  0.89124029  0.49941209     0.13400
N342        N  0.87015492  0.59058629  0.24122560    -0.02900
C343        C  0.87176223  0.58525180  0.20008473    -0.00300
C344        C  0.86081713  0.54749057  0.18972238    -0.23200
C345        C  0.85570126  0.52754861  0.22530370    -0.23400
C346        C  0.86439096  0.55349500  0.25669154    -0.00400
H347        H  0.86275129  0.53421280  0.15977570     0.13400
H348        H  0.85153937  0.49613071  0.22748734     0.13400
N349        N  0.61391980  0.75002979  0.09463689    -0.02900
C350        C  0.61385669  0.71121761  0.08429245    -0.00300
C351        C  0.62362219  0.70602906  0.04379682    -0.23200
C352        C  0.62732637  0.74253047  0.02741926    -0.23400
C353        C  0.61903228  0.76920169  0.05819968    -0.00400
H354        H  0.62249019  0.67881039  0.02674954     0.13400
H355        H  0.62981362  0.74881756  0.99518628     0.13400
C356        C  0.22400831  0.75355271  0.27922717     0.03700
C357        C  0.22130839  0.72772709  0.24530153    -0.12500
C358        C  0.25139220  0.72721753  0.21449802     0.01200
C359        C  0.28484327  0.75253693  0.21932380    -0.11000
C360        C  0.28732191  0.77977769  0.25160068     0.03700
C361        C  0.25654329  0.78021562  0.28098057    -0.10400
H362        H  0.19620066  0.70768406  0.24328148     0.09300
H363        H  0.30948958  0.75114061  0.19789716     0.06800
H364        H  0.25869938  0.80058665  0.30627780     0.06600
N365        N  0.42581351  0.88409965  0.25267156    -0.02900
C366        C  0.46321999  0.87272386  0.26534142    -0.00300
C367        C  0.48751802  0.86587199  0.23182017    -0.23200
C368        C  0.46773839  0.88094841  0.19896213    -0.23400
C369        C  0.43153581  0.89514514  0.21332421    -0.00400
H370        H  0.51929658  0.85938995  0.23240521     0.13400
H371        H  0.48176490  0.88840398  0.17020380     0.13400
N372        N  0.11872343  0.76295519  0.42090659    -0.02900
C373        C  0.12698528  0.74630888  0.45790471    -0.00300
C374        C  0.13748600  0.77503122  0.48577011    -0.23200
C375        C  0.12962150  0.81022071  0.46759946    -0.23400
C376        C  0.11393590  0.80183299  0.42956967    -0.00400
H377        H  0.14421870  0.77107201  0.51772478     0.13400
H378        H  0.12698213  0.83785149  0.48376129     0.13400
N379        N  0.25343730  0.62159065  0.07347118    -0.02900
C380        C  0.29164042  0.61197192  0.06262746    -0.00300
C381        C  0.30065414  0.62611767  0.02427016    -0.23200
C382        C  0.26564101  0.63988728  0.00847021    -0.23400
C383        C  0.23641105  0.63288010  0.03752702    -0.00400
H384        H  0.32718791  0.61927114  0.00654237     0.13400
H385        H  0.26055292  0.64510542  0.97635578     0.13400
O386        O  0.99250636  0.94061755  0.54763398    -0.79600
O387        O  0.04250802  0.10188990  0.51363117    -0.79600
O388        O  0.06053773  0.00071434  0.56205134    -0.79600
O389        O  0.95419388  0.01567066  0.56653968    -0.79600
O390        O  0.09320185  0.03894847  0.51904554    -0.79700
O391        O  0.92548958  0.97428683  0.52627336    -0.79600
O392        O  0.00283069  0.08142965  0.56332209    -0.79600
O393        O  0.05436035  0.92089914  0.53956489    -0.79600
C394        C  0.01961727  0.91491187  0.55465572     1.10100
C395        C  0.03056292  0.10382393  0.55016417     1.10000
C396        C  0.09248290  0.01820819  0.55196307     1.10100
C397        C  0.92401222  0.99523395  0.55846204     1.10000
O398        O  0.95728002  0.99486986  0.44595945    -0.79600
O399        O  0.05999012  0.01278367  0.43988048    -0.79700
O400        O  0.02500797  0.94099154  0.46424205    -0.79600
O401        O  0.96881520  0.09968206  0.48597906    -0.79600
O402        O  0.00918896  0.07755800  0.43796028    -0.79600
O403        O  0.96489663  0.91656382  0.47339470    -0.79600
O404        O  0.92068097  0.03372514  0.48464437    -0.79500
O405        O  0.09072886  0.97585283  0.48313210    -0.79600
Co406      Co  0.97798811  0.96902007  0.49435176     1.51500
Co407      Co  0.04900950  0.05554093  0.47788146     1.51700
Co408      Co  0.03891900  0.97145493  0.51608306     1.51600
Co409      Co  0.96379399  0.05554236  0.52502148     1.51500
O410        O  0.00740153  0.02040842  0.50343828    -1.41500
C411        C  0.92383466  0.01054277  0.45355459     1.10000
C412        C  0.09127145  0.99473196  0.44969016     1.10100
C413        C  0.99970996  0.91362656  0.45748953     1.10100
C414        C  0.98190809  0.10124150  0.44979245     1.10000
C415        C  0.07656185  0.82352691  0.41938585    -0.04900
C416        C  0.04079113  0.81290672  0.43958504    -0.32300
C417        C  0.01073382  0.84100176  0.44767067     0.36900
C418        C  0.01531953  0.87972626  0.43344465    -0.05300
C419        C  0.04765110  0.88776395  0.40678575    -0.32200
C420        C  0.07890057  0.86074526  0.40121344     0.36800
H421        H  0.03871066  0.78446934  0.45418659     0.17200
O422        O  0.98023550  0.83176004  0.47407457    -0.59700
H423        H  0.05199360  0.91735450  0.39547325     0.17200
O424        O  0.11390410  0.87318875  0.38334253    -0.59800
H425        H  0.11684607  0.85718091  0.35822695     0.44200
H426        H  0.99228711  0.83268693  0.50133211     0.44200
C427        C  0.24888559  0.70028512  0.17748794    -0.04900
C428        C  0.23520246  0.66103117  0.18065408    -0.32300
C429        C  0.23552711  0.63518020  0.14664829     0.36900
C430        C  0.24939399  0.64807496  0.10833903    -0.05300
C431        C  0.26156774  0.68752029  0.10487707    -0.32200
C432        C  0.26144679  0.71325231  0.13847305     0.36800
H433        H  0.22530480  0.64989452  0.20986762     0.17200
O434        O  0.22321691  0.59709603  0.15147215    -0.59700
H435        H  0.27201483  0.69839848  0.07574415     0.17200
O436        O  0.27248235  0.75161587  0.13233420    -0.59800
H437        H  0.30147570  0.75085253  0.12529841     0.44200
H438        H  0.19459588  0.59694168  0.14315010     0.44200
C439        C  0.19524318  0.75147495  0.31487920    -0.04900
C440        C  0.21099347  0.74960732  0.35449625    -0.32300
C441        C  0.18625052  0.75067299  0.38917120     0.36900
C442        C  0.14398045  0.75420365  0.38546296    -0.05300
C443        C  0.12793239  0.75511403  0.34574568    -0.32200
C444        C  0.15300628  0.75335902  0.31078281     0.36800
H445        H  0.24316421  0.74790309  0.35875738     0.17200
O446        O  0.20425095  0.75071860  0.42667180    -0.59700
H447        H  0.09586696  0.75842985  0.34187949     0.17200
O448        O  0.13588948  0.75503048  0.27289286    -0.59800
H449        H  0.13784463  0.78303605  0.26457439     0.44200
H450        H  0.20867980  0.72267258  0.43323595     0.44200
C451        C  0.32293262  0.80684858  0.25532167    -0.04900
C452        C  0.31809549  0.84793280  0.25422241    -0.32300
C453        C  0.35147163  0.87352344  0.25569339     0.36900
C454        C  0.39095460  0.85858299  0.25893187    -0.05300
C455        C  0.39544557  0.81733327  0.26112590    -0.32200
C456        C  0.36215166  0.79185500  0.25926249     0.36800
H457        H  0.28831970  0.86023562  0.25093063     0.17200
O458        O  0.34522916  0.91313470  0.25191829    -0.59700
H459        H  0.42511253  0.80451633  0.26257258     0.17200
O460        O  0.36839682  0.75208456  0.26054855    -0.59800
H461        H  0.36878262  0.74537122  0.28998143     0.44200
H462        H  0.35176522  0.92443938  0.27895216     0.44200
C463        C  0.82580531  0.93390825  0.42921179    -0.04900
C464        C  0.81755245  0.97217479  0.44344453    -0.32300
C465        C  0.84828568  0.00043581  0.44686101     0.36900
C466        C  0.88782876  0.99084020  0.43519208    -0.05300
C467        C  0.89395742  0.95483575  0.41450174    -0.32200
C468        C  0.86393961  0.92604041  0.41307037     0.36800
H469        H  0.78841939  0.97865287  0.45653281     0.17200
O470        O  0.84012680  0.03559479  0.46547153    -0.59700
H471        H  0.92361701  0.94657488  0.40403769     0.17200
O472        O  0.87339779  0.88892134  0.39981125    -0.59800
H473        H  0.88904617  0.87695386  0.42215349     0.44200
H474        H  0.83115249  0.05320223  0.44317171     0.44200
C475        C  0.68583001  0.76617914  0.20185468    -0.04900
C476        C  0.70230390  0.77046628  0.16282484    -0.32300
C477        C  0.67856197  0.76753836  0.12780867     0.36900
C478        C  0.63675801  0.76068317  0.13077361    -0.05300
C479        C  0.61985221  0.75733045  0.17002443    -0.32200
C480        C  0.64397577  0.76030181  0.20538143     0.36800
H481        H  0.73437232  0.77449360  0.15935972     0.17200
O482        O  0.69709079  0.76937701  0.09053674    -0.59700
H483        H  0.58818587  0.75091353  0.17313773     0.17200
O484        O  0.62661642  0.75583775  0.24300921    -0.59800
H485        H  0.63012559  0.72773284  0.24986207     0.44200
H486        H  0.70610982  0.74216985  0.08473365     0.44200
C487        C  0.79767252  0.69222242  0.26814079    -0.04900
C488        C  0.78030596  0.65523466  0.26125183    -0.32300
C489        C  0.80378521  0.62165214  0.25463899     0.36900
C490        C  0.84613223  0.62387592  0.25491851    -0.05300
C491        C  0.86386296  0.66050579  0.26349018    -0.32200
C492        C  0.84003598  0.69435008  0.27068762     0.36800
H493        H  0.74796817  0.65247197  0.25972463     0.17200
O494        O  0.78488954  0.58682507  0.24627493    -0.59700
H495        H  0.89623769  0.66301223  0.26359053     0.17200
O496        O  0.85851456  0.72943847  0.27885026    -0.59800
H497        H  0.86594344  0.74032004  0.25184071     0.44200
H498        H  0.77714715  0.58843203  0.21714926     0.44200
C499        C  0.74496444  0.81745612  0.33440275    -0.04900
C500        C  0.74074333  0.80414685  0.37454074    -0.32300
C501        C  0.74421086  0.82981213  0.40783248     0.36900
C502        C  0.75197869  0.87044718  0.40183460    -0.05300
C503        C  0.75566170  0.88392064  0.36145838    -0.32200
C504        C  0.75182641  0.85793772  0.32797183     0.36800
H505        H  0.73551087  0.77323880  0.38023866     0.17200
O506        O  0.74224311  0.81419884  0.44625554    -0.59700
H507        H  0.76260856  0.91451695  0.35597120     0.17200
O508        O  0.75753936  0.87188625  0.28922132    -0.59800
H509        H  0.73270768  0.88656807  0.28261338     0.44200
H510        H  0.71315589  0.81202174  0.45250325     0.44200
C511        C  0.88603559  0.00356926  0.58084730    -0.04900
C512        C  0.88448414  0.03564045  0.60828629    -0.32300
C513        C  0.84808555  0.04822629  0.62562152     0.36900
C514        C  0.81251427  0.02789386  0.61694813    -0.05300
C515        C  0.81418579  0.99569293  0.58983567    -0.32200
C516        C  0.85028146  0.98362001  0.57195255     0.36800
H517        H  0.91140953  0.05203354  0.61542876     0.17200
O518        O  0.84778666  0.07992147  0.65145048    -0.59700
H519        H  0.78710410  0.97986513  0.58196520     0.17200
O520        O  0.84995094  0.95286165  0.54504741    -0.59800
H521        H  0.85343131  0.92914444  0.56206787     0.44200
H522        H  0.84982608  0.10319272  0.63356702     0.44200
C523        C  0.75556801  0.10578426  0.65189173    -0.04900
C524        C  0.75145411  0.10128749  0.69444791    -0.32300
C525        C  0.74899323  0.13375658  0.72063053     0.36900
C526        C  0.75117309  0.17225128  0.70497599    -0.05300
C527        C  0.75636123  0.17698224  0.66260890    -0.32200
C528        C  0.75766235  0.14418440  0.63614013     0.36800
H529        H  0.74861224  0.07219897  0.70738323     0.17200
O530        O  0.74338151  0.12737433  0.76151788    -0.59700
H531        H  0.75764984  0.20624656  0.64980495     0.17200
O532        O  0.76018052  0.14993946  0.59490727    -0.59800
H533        H  0.73240856  0.15587938  0.58611599     0.44200
H534        H  0.76987098  0.13236123  0.77424646     0.44200
C535        C  0.67045217  0.24184567  0.81274439    -0.04900
C536        C  0.67552650  0.24551834  0.85514686    -0.32300
C537        C  0.64256558  0.24303834  0.88202222     0.36900
C538        C  0.60328223  0.23892657  0.86676897    -0.05300
C539        C  0.59828541  0.23579238  0.82420978    -0.32200
C540        C  0.63123937  0.23683166  0.79750171     0.36800
H541        H  0.70541132  0.24868111  0.86760903     0.17200
O542        O  0.64920455  0.24398945  0.92318398    -0.59700
H543        H  0.56863126  0.23121053  0.81168885     0.17200
O544        O  0.62477705  0.23222024  0.75651139    -0.59800
H545        H  0.62063753  0.25917966  0.74588872     0.44200
H546        H  0.65356051  0.21621398  0.93113092     0.44200
C547        C  0.84885911  0.37333925  0.75818538    -0.04900
C548        C  0.83911740  0.35315739  0.72199223    -0.32300
C549        C  0.81375689  0.32004419  0.72181077     0.36900
C550        C  0.79772573  0.30507804  0.75854440    -0.05300
C551        C  0.80855109  0.32409327  0.79504298    -0.32200
C552        C  0.83315196  0.35781867  0.79526271     0.36800
H553        H  0.84985854  0.36424755  0.69308581     0.17200
O554        O  0.80226521  0.30456075  0.68504655    -0.59700
H555        H  0.79719252  0.31323960  0.82384648     0.17200
O556        O  0.84031079  0.37573275  0.83198774    -0.59800
H557        H  0.81591869  0.39123778  0.83789673     0.44200
H558        H  0.82647357  0.29120928  0.67405256     0.44200
C559        C  0.31562514  0.24394863  0.18026076    -0.04900
C560        C  0.35686851  0.23934942  0.18864604    -0.32300
C561        C  0.38596818  0.24092433  0.15722556     0.36900
C562        C  0.37437402  0.24630633  0.11622685    -0.05300
C563        C  0.33324963  0.24968679  0.10771508    -0.32200
C564        C  0.30423255  0.24892550  0.13905011     0.36800
H565        H  0.36668284  0.23548510  0.21982076     0.17200
O566        O  0.42578607  0.23768215  0.16698981    -0.59700
H567        H  0.32368736  0.25443630  0.07660304     0.17200
O568        O  0.26464182  0.25347333  0.12887090    -0.59800
H569        H  0.25259137  0.22691534  0.13151061     0.44200
H570        H  0.43292368  0.20997150  0.16101216     0.44200
C571        C  0.19310130  0.30441066  0.24780653    -0.04900
C572        C  0.16897029  0.31269907  0.21368542    -0.32300
C573        C  0.13866406  0.34188032  0.21499424     0.36900
C574        C  0.13157791  0.36415184  0.25107899    -0.05300
C575        C  0.15796320  0.35703444  0.28402720    -0.32200
C576        C  0.18741645  0.32739596  0.28296681     0.36800
H577        H  0.17305957  0.29583216  0.18597004     0.17200
O578        O  0.11573645  0.34753731  0.18092251    -0.59700
H579        H  0.15521834  0.37361828  0.31172141     0.17200
O580        O  0.21128836  0.32178185  0.31644209    -0.59800
H581        H  0.19446563  0.30703891  0.33609105     0.44200
H582        H  0.13063665  0.36713585  0.16441886     0.44200
C583        C  0.20212465  0.03042331  0.39259780    -0.04900
C584        C  0.20004503  0.99512466  0.41517803    -0.32300
C585        C  0.16411607  0.98236702  0.43289530     0.36900
C586        C  0.12917896  0.00488929  0.42851143    -0.05300
C587        C  0.13131216  0.04045729  0.40656962    -0.32200
C588        C  0.16739868  0.05351835  0.38932050     0.36800
H589        H  0.22660597  0.97735168  0.41964126     0.17200
O590        O  0.16375000  0.94814603  0.45483377    -0.59700
H591        H  0.10506638  0.05899039  0.40361086     0.17200
O592        O  0.16800065  0.08840902  0.36859690    -0.59800
H593        H  0.17032970  0.10898385  0.38995463     0.44200
H594        H  0.15140126  0.92837162  0.43665471     0.44200
C595        C  0.25162863  0.17689823  0.30260753    -0.04900
C596        C  0.25596359  0.18184917  0.34508549    -0.32300
C597        C  0.25733718  0.14914571  0.37179115     0.36900
C598        C  0.25384934  0.11054529  0.35651350    -0.05300
C599        C  0.24764884  0.10599060  0.31414546    -0.32200
C600        C  0.24663281  0.13840534  0.28760987     0.36800
H601        H  0.25954229  0.21112063  0.35748812     0.17200
O602        O  0.26336879  0.15509476  0.41263281    -0.59700
H603        H  0.24482489  0.07689313  0.30115645     0.17200
O604        O  0.24018472  0.13212082  0.24685519    -0.59800
H605        H  0.26682268  0.12549031  0.23538093     0.44200
H606        H  0.23725950  0.16431185  0.42334838     0.44200
C607        C  0.92178447  0.43553955  0.80417747    -0.04900
C608        C  0.93702752  0.40940614  0.83327416    -0.32300
C609        C  0.97223783  0.41851552  0.85513355     0.36900
C610        C  0.99236653  0.45452701  0.84861581    -0.05300
C611        C  0.98025874  0.47768574  0.81559022    -0.32200
C612        C  0.94578360  0.46823801  0.79312672     0.36800
H613        H  0.91997039  0.38357799  0.84153202     0.17200
O614        O  0.98300796  0.39502555  0.88719144    -0.59700
H615        H  0.99464854  0.50576356  0.81030412     0.17200
O616        O  0.93351867  0.49356550  0.76318365    -0.59800
H617        H  0.94896574  0.48574139  0.73844607     0.44200
H618        H  0.00863240  0.38250805  0.87874201     0.44200
C619        C  0.95371804  0.60124742  0.10636702    -0.04900
C620        C  0.96821997  0.60007685  0.14644745    -0.32300
C621        C  0.94157815  0.60191359  0.17960672     0.36900
C622        C  0.90006143  0.60592060  0.17256166    -0.05300
C623        C  0.88699923  0.61485213  0.13298891    -0.32200
C624        C  0.91360186  0.61254040  0.09990977     0.36800
H625        H  0.99885594  0.59090039  0.15200241     0.17200
O626        O  0.95523633  0.59165377  0.21752324    -0.59700
H627        H  0.85520613  0.61789880  0.12698649     0.17200
O628        O  0.89861325  0.61449027  0.06110309    -0.59800
H629        H  0.90500979  0.64147310  0.05156029     0.44200
H630        H  0.96951767  0.61517833  0.22782948     0.44200
C631        C  0.01011573  0.44643914  0.13668807    -0.04900
C632        C  0.04737885  0.45683283  0.15365381    -0.32300
C633        C  0.06549545  0.43445066  0.18436371     0.36900
C634        C  0.04641016  0.40047953  0.19951299    -0.05300
C635        C  0.00977862  0.38901858  0.18133368    -0.32200
C636        C  0.99177071  0.41146153  0.15028904     0.36800
H637        H  0.06299978  0.48278726  0.14310101     0.17200
O638        O  0.10208528  0.44614953  0.19916823    -0.59700
H639        H  0.99465013  0.36267362  0.19154418     0.17200
O640        O  0.95648140  0.39865602  0.13346295    -0.59800
H641        H  0.96449033  0.38309944  0.10921090     0.44200
H642        H  0.09780817  0.47238151  0.21130197     0.44200
C643        C  0.12827579  0.57968935  0.99083026    -0.04900
C644        C  0.12659112  0.61355413  0.01595017    -0.32300
C645        C  0.16129074  0.63043169  0.03233210     0.36900
C646        C  0.19878628  0.61450845  0.02282293    -0.05300
C647        C  0.20081277  0.58142038  0.99690576    -0.32200
C648        C  0.16605880  0.56405509  0.98098815     0.36800
H649        H  0.09802505  0.62648250  0.02424213     0.17200
O650        O  0.15822912  0.66272109  0.05717442    -0.59700
H651        H  0.22961879  0.56888570  0.98892722     0.17200
O652        O  0.16939967  0.53104598  0.95727991    -0.59800
H653        H  0.17750435  0.54060747  0.92997790     0.44200
H654        H  0.15349165  0.65207075  0.08484370     0.44200
C655        C  0.83253126  0.37577231  0.01267844    -0.04900
C656        C  0.84955736  0.37428775  0.97295704    -0.32300
C657        C  0.88522609  0.39413525  0.96331134     0.36900
C658        C  0.90688308  0.41320252  0.99388252    -0.05300
C659        C  0.89312794  0.41009113  0.03431525    -0.32200
C660        C  0.85626992  0.39238923  0.04380135     0.36800
H661        H  0.83428452  0.36021530  0.94798997     0.17200
O662        O  0.89794087  0.39577012  0.92361421    -0.59700
H663        H  0.90900666  0.42457297  0.05854296     0.17200
O664        O  0.84275179  0.39437485  0.08315801    -0.59800
H665        H  0.85615973  0.37232095  0.09747013     0.44200
H666        H  0.88304054  0.41790333  0.91137831     0.44200
C667        C  0.96715480  0.13432436  0.42382559    -0.04900
C668        C  0.99028247  0.14851518  0.39126370    -0.32300
C669        C  0.98212321  0.18547665  0.37383325     0.36900
C670        C  0.95031562  0.20899063  0.38892961    -0.05300
C671        C  0.92450998  0.19269216  0.41811556    -0.32200
C672        C  0.93240429  0.15579087  0.43523950     0.36800
H673        H  0.01631012  0.13221828  0.38096880     0.17200
O674        O  0.00575704  0.19865084  0.34240209    -0.59700
H675        H  0.89962081  0.20972610  0.42991550     0.17200
O676        O  0.90715680  0.14222548  0.46512787    -0.59800
H677        H  0.88809273  0.12456770  0.45091268     0.32000
H678        H  0.03309752  0.20133025  0.35381671     0.44200
C679        C  0.70488018  0.18483505  0.23671326    -0.04900
C680        C  0.71936308  0.14664107  0.23067148    -0.32300
C681        C  0.69484554  0.11345982  0.23681642     0.36900
C682        C  0.65397767  0.11765892  0.24917165    -0.05300
C683        C  0.63951318  0.15624135  0.25471352    -0.32200
C684        C  0.66451336  0.18943679  0.24881507     0.36800
H685        H  0.75047780  0.14237799  0.22212492     0.17200
O686        O  0.71225807  0.07711302  0.23330665    -0.59700
H687        H  0.60889917  0.16057953  0.26484040     0.17200
O688        O  0.64954738  0.22630097  0.25610099    -0.59800
H689        H  0.64713675  0.22834443  0.28602293     0.44200
H690        H  0.71747951  0.07340869  0.20381621     0.44200
C691        C  0.76624380  0.35256590  0.08875579    -0.04900
C692        C  0.76487386  0.31129594  0.08498638    -0.32300
C693        C  0.76182878  0.28656389  0.11924074     0.36900
C694        C  0.76122909  0.30238371  0.15904960    -0.05300
C695        C  0.76252291  0.34370750  0.16296956    -0.32200
C696        C  0.76427091  0.36858658  0.12838895     0.36800
H697        H  0.76530096  0.29801878  0.05499205     0.17200
O698        O  0.76075350  0.24670492  0.11336817    -0.59700
H699        H  0.76144864  0.35684224  0.19302689     0.17200
O700        O  0.76297860  0.40851403  0.13355301    -0.59800
H701        H  0.79020967  0.41605080  0.14299106     0.44200
H702        H  0.73309181  0.24094673  0.10394889     0.44200
C703        C  0.82253976  0.26046016  0.29394713    -0.04900
C704        C  0.81264240  0.25941736  0.33587054    -0.32300
C705        C  0.84223930  0.26443413  0.36640547     0.36900
C706        C  0.88270037  0.27017257  0.35554341    -0.05300
C707        C  0.89240850  0.27117547  0.31366707    -0.32200
C708        C  0.86318960  0.26608814  0.28335476     0.36800
H709        H  0.78170582  0.25527015  0.34501913     0.17200
O710        O  0.83121837  0.26442051  0.40664703    -0.59700
H711        H  0.92324964  0.27567597  0.30436692     0.17200
O712        O  0.87503160  0.26598471  0.24330962    -0.59800
H713        H  0.88055893  0.23809683  0.23674859     0.44200
H714        H  0.82863874  0.23628568  0.41411173     0.44200
C715        C  0.04884914  0.65322246  0.81537295    -0.04900
C716        C  0.00910033  0.65662935  0.83043634    -0.32300
C717        C  0.99558229  0.63455289  0.86392628     0.36900
C718        C  0.02242988  0.61048262  0.88529600    -0.05300
C719        C  0.06339438  0.61196421  0.87432811    -0.32200
C720        C  0.07657411  0.63242487  0.83961960     0.36800
H721        H  0.98707164  0.67413317  0.81466595     0.17200
O722        O  0.95547767  0.63442735  0.87327149    -0.59700
H723        H  0.08513902  0.59464268  0.89096840     0.17200
O724        O  0.11626978  0.63011675  0.82894547    -0.59800
H725        H  0.11930030  0.60439553  0.81499395     0.44200
H726        H  0.94333465  0.61486850  0.85455491     0.44200
C727        C  0.13071441  0.00306525  0.56995881    -0.04900
C728        C  0.16629708  0.00589107  0.54701273    -0.32300
C729        C  0.19654214  0.97745435  0.55074418     0.36900
C730        C  0.19134011  0.94531911  0.57749166    -0.05300
C731        C  0.15932220  0.94615068  0.60504393    -0.32200
C732        C  0.12940013  0.97511741  0.60194646     0.36800
H733        H  0.16864232  0.02709445  0.52254898     0.17200
O734        O  0.22783826  0.97790252  0.52350951    -0.59700
H735        H  0.15528311  0.92214627  0.62628081     0.17200
O736        O  0.09701648  0.97352565  0.62780635    -0.59800
H737        H  0.08200738  0.94949444  0.62008092     0.44200
H738        H  0.25186091  0.98434180  0.53986564     0.44200
C739        C  0.12927748  0.68012584  0.75901936    -0.04900
C740        C  0.12641207  0.71810459  0.77639133    -0.32300
C741        C  0.15966627  0.74346451  0.77794637     0.36900
C742        C  0.19697012  0.73132894  0.76245161    -0.05300
C743        C  0.20056790  0.69322345  0.74644529    -0.32200
C744        C  0.16732812  0.66774675  0.74478339     0.36800
H745        H  0.09788432  0.72896510  0.78744613     0.17200
O746        O  0.15541629  0.78020721  0.79458491    -0.59700
H747        H  0.22913428  0.68350769  0.73427748     0.17200
O748        O  0.17223670  0.63118975  0.72803425    -0.59800
H749        H  0.17062372  0.61264549  0.75126333     0.44200
H750        H  0.14330475  0.79655417  0.77261836     0.44200
C751        C  0.27013940  0.83525752  0.68572142    -0.04900
C752        C  0.26667829  0.87651669  0.68677089    -0.32300
C753        C  0.26174596  0.89840359  0.65044223     0.36900
C754        C  0.26022097  0.87920812  0.61230881    -0.05300
C755        C  0.26483738  0.83802020  0.61164220    -0.32200
C756        C  0.27044252  0.81644903  0.64747169     0.36800
H757        H  0.26595414  0.89158112  0.71584717     0.17200
O758        O  0.25650845  0.93825628  0.65269780    -0.59700
H759        H  0.26323812  0.82222021  0.58304008     0.17200
O760        O  0.27422045  0.77640999  0.64488983    -0.59800
H761        H  0.30313889  0.77105086  0.64927244     0.44200
H762        H  0.28287289  0.94968947  0.64505292     0.44200
C763        C  0.39754901  0.76179181  0.86755716    -0.04900
C764        C  0.40291828  0.76125401  0.82490010    -0.32300
C765        C  0.37081221  0.76759642  0.79812120     0.36900
C766        C  0.33192436  0.77480863  0.81329376    -0.05300
C767        C  0.32607981  0.77394171  0.85589756    -0.32200
C768        C  0.35845425  0.76773954  0.88282984     0.36800
H769        H  0.43265434  0.75753328  0.81214825     0.17200
O770        O  0.37795850  0.76682204  0.75697252    -0.59700
H771        H  0.29641514  0.77894239  0.86838943     0.17200
O772        O  0.35193376  0.76913936  0.92406859    -0.59800
H773        H  0.34139219  0.74299059  0.93127962     0.44200
H774        H  0.37165982  0.73963410  0.74833371     0.44200
C775        C  0.60043354  0.80783537  0.04708868    -0.04900
C776        C  0.57292033  0.80857098  0.01450386    -0.32300
C777        C  0.55819391  0.84380136  0.99861559     0.36900
C778        C  0.56870912  0.87994678  0.01632444    -0.05300
C779        C  0.59605766  0.87941414  0.04928367    -0.32200
C780        C  0.61219833  0.84391887  0.06424633     0.36800
H781        H  0.56317392  0.78139875  0.00045372     0.17200
O782        O  0.53327643  0.84229695  0.96565448    -0.59700
H783        H  0.60474480  0.90660303  0.06396841     0.17200
O784        O  0.63965509  0.84506206  0.09520873    -0.59800
H785        H  0.66597041  0.84869831  0.08158894     0.44200
H786        H  0.55054016  0.84936212  0.94210908     0.44200
C787        C  0.43086241  0.82348041  0.93857636    -0.04900
C788        C  0.44844836  0.81605097  0.97675628    -0.32300
C789        C  0.44910384  0.84506874  0.00730043     0.36900
C790        C  0.43139728  0.88191371  0.99997973    -0.05300
C791        C  0.40811172  0.88642119  0.96424965    -0.32200
C792        C  0.40849930  0.85789406  0.93339661     0.36800
H793        H  0.46571858  0.78944141  0.98118405     0.17200
O794        O  0.47144371  0.83887158  0.04170971    -0.59700
H795        H  0.39327373  0.91403839  0.95790647     0.17200
O796        O  0.39082271  0.86591249  0.89664858    -0.59800
H797        H  0.36280343  0.85649929  0.89943398     0.44200
H798        H  0.45410132  0.82293078  0.05982314     0.44200
C799        C  0.57691328  0.99990852  0.13990017    -0.04900
C800        C  0.59494977  0.03745857  0.13882512    -0.32300
C801        C  0.61654147  0.05249607  0.17196832     0.36900
C802        C  0.62127687  0.02993129  0.20747973    -0.05300
C803        C  0.60562074  0.99119048  0.20738479    -0.32200
C804        C  0.58347579  0.97639385  0.17433185     0.36800
H805        H  0.59096221  0.05640892  0.11267124     0.17200
O806        O  0.63133948  0.08996851  0.16968581    -0.59700
H807        H  0.60819743  0.97269793  0.23398071     0.17200
O808        O  0.56736622  0.93945256  0.17678313    -0.59800
H809        H  0.53930223  0.94345360  0.18604390     0.44200
H810        H  0.65470659  0.08839031  0.15104088     0.44200
C811        C  0.42697382  0.99737033  0.14368435    -0.04900
C812        C  0.39845341  0.96766075  0.13590873    -0.32300
C813        C  0.39467505  0.93546022  0.16215266     0.36900
C814        C  0.41817535  0.93373069  0.19746721    -0.05300
C815        C  0.43917650  0.96760261  0.20974131    -0.32200
C816        C  0.44366915  0.99954250  0.18296417     0.36800
H817        H  0.38421457  0.96596974  0.10629588     0.17200
O818        O  0.37258209  0.90355189  0.15010550    -0.59700
H819        H  0.45662027  0.96711730  0.23754847     0.17200
O820        O  0.46888779  0.02979434  0.19318662    -0.59800
H821        H  0.49651675  0.01912747  0.19005294     0.44200
H822        H  0.34661611  0.90615536  0.16462502     0.44200
C823        C  0.39697270  0.19354872  0.03486097    -0.04900
C824        C  0.40030469  0.16439040  0.06455182    -0.32300
C825        C  0.41196776  0.12614280  0.05389178     0.36900
C826        C  0.42272997  0.11679899  0.01307075    -0.05300
C827        C  0.41359639  0.14421595  0.98275695    -0.32200
C828        C  0.39861024  0.18153813  0.99325828     0.36800
H829        H  0.39810576  0.17186721  0.09652450     0.17200
O830        O  0.41727183  0.09960177  0.08465433    -0.59700
H831        H  0.41942296  0.13725714  0.95106560     0.17200
O832        O  0.38996506  0.20741418  0.96247301    -0.59800
H833        H  0.36132813  0.21444134  0.96618512     0.44200
H834        H  0.39086549  0.08655248  0.08793913     0.44200
C835        C  0.56770691  0.17507852  0.93875000    -0.04900
C836        C  0.59432409  0.14347090  0.93879129    -0.32300
C837        C  0.59375198  0.11631229  0.97080149     0.36900
C838        C  0.56456318  0.11944978  0.00222212    -0.05300
C839        C  0.54206003  0.15414307  0.00497057    -0.32200
C840        C  0.54374292  0.18202414  0.97362220     0.36800
H841        H  0.61340730  0.13815998  0.91258751     0.17200
O842        O  0.61850942  0.08423033  0.96834018    -0.59700
H843        H  0.51999265  0.15779015  0.02896867     0.17200
O844        O  0.51890701  0.21409056  0.97535974    -0.59800
H845        H  0.49216539  0.20423541  0.96707767     0.44200
H846        H  0.64269416  0.09152946  0.98423095     0.44200
C847        C  0.10090587  0.20040656  0.58096920    -0.04900
C848        C  0.05963149  0.20590011  0.57453389    -0.32300
C849        C  0.03373254  0.17357639  0.57123745     0.36900
C850        C  0.04893746  0.13517575  0.57499978    -0.05300
C851        C  0.08893083  0.13018919  0.58751436    -0.32200
C852        C  0.11487450  0.16257716  0.59059598     0.36800
H853        H  0.04847703  0.23472724  0.56639703     0.17200
O854        O  0.99541850  0.17954435  0.55741345    -0.59700
H855        H  0.10133726  0.10089056  0.59005065     0.17200
O856        O  0.15471366  0.15658541  0.59891581    -0.59800
H857        H  0.16756652  0.15123341  0.57211671     0.44200
H858        H  0.97772833  0.17292337  0.58073825     0.44200
C859        C  0.37180886  0.06601001  0.81708510    -0.04900
C860        C  0.41233990  0.07697243  0.81742739    -0.32300
C861        C  0.43800444  0.06436629  0.84853232     0.36900
C862        C  0.42315377  0.04060851  0.88068449    -0.05300
C863        C  0.38192562  0.03205561  0.88161561    -0.32200
C864        C  0.35641336  0.04460505  0.85030409     0.36800
H865        H  0.42490671  0.09318957  0.79212293     0.17200
O866        O  0.47801653  0.07332803  0.84546512    -0.59700
H867        H  0.36950179  0.01461953  0.90615006     0.17200
O868        O  0.31673397  0.03410122  0.85147478    -0.59800
H869        H  0.30193183  0.05876988  0.85741529     0.44200
H870        H  0.48120013  0.09838514  0.86037066     0.44200
C871        C  0.11649127  0.43939573  0.99687682    -0.04900
C872        C  0.15124438  0.45842068  0.01115555    -0.32300
C873        C  0.18960346  0.44703885  0.99860297     0.36900
C874        C  0.19487928  0.41496937  0.97198420    -0.05300
C875        C  0.16061319  0.39440772  0.95884430    -0.32200
C876        C  0.12165078  0.40639885  0.97105058     0.36800
H877        H  0.14894945  0.48409940  0.03053608     0.17200
O878        O  0.22191936  0.46906351  0.01081121    -0.59700
H879        H  0.16396807  0.36902746  0.93923381     0.17200
O880        O  0.08899351  0.38608904  0.95699760    -0.59800
H881        H  0.08570318  0.36379600  0.97611509     0.44200
H882        H  0.22603009  0.46251574  0.03997205     0.44200
C883        C  0.14944600  0.28000920  0.60875474    -0.04900
C884        C  0.19088989  0.28809202  0.60734224    -0.32300
C885        C  0.21368665  0.29141353  0.64306697     0.36900
C886        C  0.19548008  0.28672462  0.68146318    -0.05300
C887        C  0.15376770  0.28054506  0.68324855    -0.32200
C888        C  0.13086206  0.27695753  0.64723519     0.36800
H889        H  0.20608048  0.28996025  0.57821336     0.17200
O890        O  0.25405774  0.29876738  0.64023042    -0.59700
H891        H  0.13924860  0.27666725  0.71252334     0.17200
O892        O  0.09045549  0.26989808  0.64978988    -0.59800
H893        H  0.08796781  0.24235120  0.65909037     0.44200
H894        H  0.26652822  0.27317259  0.63289018     0.44200
C895        C  0.33768036  0.13737809  0.75792787    -0.04900
C896        C  0.29996383  0.14088533  0.77719414    -0.32300
C897        C  0.27949902  0.17677444  0.77845978     0.36900
C898        C  0.29625931  0.21025146  0.76018905    -0.05300
C899        C  0.33447766  0.20749222  0.74226962    -0.32200
C900        C  0.35518762  0.17143302  0.74115019     0.36800
H901        H  0.28529278  0.11517514  0.78960123     0.17200
O902        O  0.24184134  0.17824403  0.79529585    -0.59700
H903        H  0.34768581  0.23305382  0.72795229     0.17200
O904        O  0.39175323  0.16951376  0.72218671    -0.59800
H905        H  0.41164527  0.17448094  0.74396422     0.44200
H906        H  0.24580815  0.18859533  0.82330196     0.44200
C907        C  0.24207035  0.33517662  0.82033162    -0.04900
C908        C  0.23646079  0.32016783  0.85964692    -0.32300
C909        C  0.23953241  0.34420378  0.89410981     0.36900
C910        C  0.24690374  0.38508103  0.89017027    -0.05300
C911        C  0.25166868  0.40039111  0.85064497    -0.32200
C912        C  0.24923400  0.37584180  0.81593176     0.36800
H913        H  0.23131417  0.28901564  0.86384550     0.17200
O914        O  0.23765719  0.32673618  0.93168169    -0.59700
H915        H  0.25886070  0.43117172  0.84685176     0.17200
O916        O  0.25702487  0.39129556  0.77819676    -0.59800
H917        H  0.23128635  0.40281829  0.76912987     0.44200
H918        H  0.26545062  0.31826612  0.93760122     0.44200
C919        C  0.79842096  0.52557252  0.91791820    -0.04900
C920        C  0.81672980  0.56191859  0.92512936    -0.32300
C921        C  0.84481288  0.56644372  0.95688067     0.36900
C922        C  0.85494944  0.53428355  0.98240189    -0.05300
C923        C  0.83256206  0.49964434  0.97839177    -0.32200
C924        C  0.80484116  0.49502079  0.94649305     0.36800
H925        H  0.81131868  0.58619969  0.90459204     0.17200
O926        O  0.86356891  0.60201882  0.96159467    -0.59700
H927        H  0.83882872  0.47476362  0.99786514     0.17200
O928        O  0.78450667  0.46014416  0.94313670    -0.59800
H929        H  0.80480251  0.44040543  0.93513713     0.44200
H930        H  0.88251471  0.60424334  0.93806184     0.44200
C931        C  0.00823198  0.87921288  0.57893825    -0.04900
C932        C  0.03692006  0.85712011  0.59984282    -0.32300
C933        C  0.02631020  0.82226673  0.62033238     0.36900
C934        C  0.98659055  0.80663497  0.61765824    -0.05300
C935        C  0.95755302  0.83031615  0.59893210    -0.32200
C936        C  0.96776317  0.86618179  0.58037225     0.36800
H937        H  0.06776927  0.86708055  0.60070292     0.17200
O938        O  0.05552421  0.80410842  0.64267054    -0.59700
H939        H  0.92676918  0.82035022  0.59705881     0.17200
O940        O  0.93779188  0.88754285  0.56232112    -0.59800
H941        H  0.93239322  0.87418639  0.53602879     0.44200
H942        H  0.05001169  0.81167903  0.67150734     0.44200
C943        C  0.76007215  0.64380138  0.79838763    -0.04900
C944        C  0.74111351  0.64483737  0.83716091    -0.32300
C945        C  0.73351656  0.61035075  0.86011007     0.36900
C946        C  0.74537712  0.57333480  0.84543355    -0.05300
C947        C  0.76419286  0.57198356  0.80675443    -0.32200
C948        C  0.77153193  0.60630890  0.78355349     0.36800
H949        H  0.73214748  0.67272114  0.85015266     0.17200
O950        O  0.71499317  0.61322995  0.89730742    -0.59700
H951        H  0.77345141  0.54390917  0.79437640     0.17200
O952        O  0.78812564  0.60243339  0.74547840    -0.59800
H953        H  0.81633968  0.59408028  0.75012026     0.44200
H954        H  0.68609149  0.61690798  0.89112862     0.44200
C955        C  0.83834736  0.73174600  0.69682998    -0.04900
C956        C  0.83313375  0.74032307  0.65502502    -0.32300
C957        C  0.86631912  0.74697847  0.62873526     0.36900
C958        C  0.90589997  0.74652239  0.64393116    -0.05300
C959        C  0.91090060  0.73913334  0.68598373    -0.32200
C960        C  0.87790339  0.73199273  0.71206435     0.36800
H961        H  0.80315555  0.74087094  0.64238978     0.17200
O962        O  0.85982450  0.75386727  0.58813143    -0.59700
H963        H  0.94084726  0.73763400  0.69857896     0.17200
O964        O  0.88475109  0.72524598  0.75262785    -0.59800
H965        H  0.88953956  0.75148042  0.76467753     0.44200
H966        H  0.85191076  0.72803572  0.57638875     0.44200
C967        C  0.59741959  0.89288145  0.83016028    -0.04900
C968        C  0.58519708  0.93029468  0.81680556    -0.32300
C969        C  0.57442625  0.95983713  0.84484714     0.36900
C970        C  0.57753005  0.95314219  0.88711290    -0.05300
C971        C  0.59478367  0.91762782  0.90017716    -0.32200
C972        C  0.60437422  0.88757811  0.87215204     0.36800
H973        H  0.57876580  0.93490797  0.78481819     0.17200
O974        O  0.55682196  0.99359204  0.83075140    -0.59700
H975        H  0.59672389  0.91142920  0.93245017     0.17200
O976        O  0.61585376  0.85153631  0.88653142    -0.59800
H977        H  0.64548538  0.85234599  0.88695265     0.44200
H978        H  0.52782053  0.98746924  0.82860771     0.44200
C979        C  0.63655853  0.82789930  0.75865988    -0.04900
C980        C  0.67618959  0.84175606  0.76140311    -0.32300
C981        C  0.70931726  0.81578602  0.75876070     0.36900
C982        C  0.70333343  0.77490917  0.75332112    -0.05300
C983        C  0.66368548  0.76128374  0.75048472    -0.32200
C984        C  0.63079169  0.78693855  0.75314846     0.36800
H985        H  0.68142395  0.87276937  0.76636333     0.17200
O986        O  0.74734785  0.83057843  0.76278578    -0.59700
H987        H  0.65796278  0.73022667  0.74633169     0.17200
O988        O  0.59292340  0.77122393  0.75238006    -0.59800
H989        H  0.58821806  0.76371037  0.72368135     0.44200
H990        H  0.75093881  0.83498902  0.79236367     0.44200
C991        C  0.46810390  0.39179499  0.11424979    -0.04900
C992        C  0.42627155  0.38528064  0.11401572    -0.32300
C993        C  0.41090859  0.34699517  0.11212525     0.36900
C994        C  0.43742687  0.31499103  0.11259430    -0.05300
C995        C  0.47750445  0.32184972  0.12431223    -0.32200
C996        C  0.49287093  0.36030164  0.12581742     0.36800
H997        H  0.40620630  0.40932343  0.10679825     0.17200
O998        O  0.37177746  0.34169596  0.10062347    -0.59700
H999        H  0.49835219  0.29747498  0.12564383     0.17200
O1000       O  0.53328517  0.36577951  0.13084491    -0.59800
H1001       H  0.53639563  0.37384099  0.15962962     0.44200
H1002       H  0.35746834  0.33407079  0.12598294     0.44200
C1003       C  0.49581786  0.35485746  0.95491084    -0.04900
C1004       C  0.53491892  0.33962644  0.95865741    -0.32300
C1005       C  0.54842906  0.30834729  0.93469457     0.36900
C1006       C  0.52266816  0.29027353  0.90623260    -0.05300
C1007       C  0.48363785  0.30610139  0.90184777    -0.32200
C1008       C  0.47008031  0.33755371  0.92611079     0.36800
H1009       H  0.55588164  0.35231775  0.98013522     0.17200
O1010       O  0.58684279  0.29535171  0.94040334    -0.59700
H1011       H  0.46300384  0.29398742  0.87981380     0.17200
O1012       O  0.43190929  0.35148781  0.92067686    -0.59800
H1013       H  0.41503742  0.33630285  0.94000277     0.44200
H1014       H  0.60375090  0.31296464  0.92366535     0.44200
C1015       C  0.64331168  0.47929016  0.04741874    -0.04900
C1016       C  0.64402966  0.44821796  0.07614222    -0.32300
C1017       C  0.67451523  0.41967732  0.07600534     0.36900
C1018       C  0.70569811  0.42198678  0.04747929    -0.05300
C1019       C  0.70749688  0.45523673  0.02186058    -0.32200
C1020       C  0.67667693  0.48350590  0.02143055     0.36800
H1021       H  0.61908505  0.44392452  0.09685355     0.17200
O1022       O  0.67118799  0.38750835  0.10086865    -0.59700
H1023       H  0.73128641  0.45751758  0.99956528     0.17200
O1024       O  0.67795702  0.51303630  0.99313866    -0.59800
H1025       H  0.69471373  0.53391141  0.00570053     0.44200
H1026       H  0.67833752  0.39703252  0.12844130     0.44200
C1027       C  0.60211293  0.48273158  0.91496127    -0.04900
C1028       C  0.63492424  0.45717098  0.91860174    -0.32300
C1029       C  0.67152406  0.46464384  0.89887823     0.36900
C1030       C  0.67652375  0.49849870  0.87398865    -0.05300
C1031       C  0.64322913  0.52321472  0.86880678    -0.32200
C1032       C  0.60633199  0.51546146  0.88855117     0.36800
H1033       H  0.63318283  0.43219509  0.93895025     0.17200
O1034       O  0.70318802  0.44015940  0.90708180    -0.59700
H1035       H  0.64603310  0.54914110  0.84994346     0.17200
O1036       O  0.57553769  0.54167067  0.88375095    -0.59800
H1037       H  0.55849589  0.53037259  0.86173867     0.44200
H1038       H  0.69690440  0.41504556  0.89304412     0.44200
C1039       C  0.54382386  0.61106777  0.09873676    -0.04900
C1040       C  0.58496953  0.60887120  0.10774770    -0.32300
C1041       C  0.60826743  0.64300883  0.11078852     0.36900
C1042       C  0.59039397  0.68004480  0.10504011    -0.05300
C1043       C  0.54832711  0.68238931  0.10348378    -0.32200
C1044       C  0.52495923  0.64811954  0.10006860     0.36800
H1045       H  0.60005888  0.58069333  0.10668940     0.17200
O1046       O  0.64922249  0.63954336  0.11255563    -0.59700
H1047       H  0.53406345  0.71060074  0.09872328     0.17200
O1048       O  0.48478943  0.65147466  0.09169068    -0.59800
H1049       H  0.48319760  0.65740865  0.06203696     0.44200
H1050       H  0.65705088  0.65171923  0.13873845     0.44200
C1051       C  0.50160296  0.63342961  0.94001284    -0.04900
C1052       C  0.46325802  0.64974593  0.94694992    -0.32300
C1053       C  0.44995666  0.68322528  0.92626694     0.36900
C1054       C  0.47532224  0.70242487  0.89829253    -0.05300
C1055       C  0.51249494  0.68436307  0.88890685    -0.32200
C1056       C  0.52571091  0.65045473  0.90951005     0.36800
H1057       H  0.44317112  0.63689299  0.96921340     0.17200
O1058       O  0.41273272  0.69786244  0.93546347    -0.59700
H1059       H  0.53217350  0.69710099  0.86625544     0.17200
O1060       O  0.56196258  0.63416450  0.89922258    -0.59800
H1061       H  0.58237004  0.65022518  0.91371962     0.44200
H1062       H  0.39380927  0.68233834  0.91864561     0.44200
C1063       C  0.36813713  0.51325247  0.07004816    -0.04900
C1064       C  0.37229042  0.54428627  0.09851772    -0.32300
C1065       C  0.34503214  0.57551831  0.09958340     0.36900
C1066       C  0.31108383  0.57462538  0.07469415    -0.05300
C1067       C  0.30291822  0.54017587  0.05222128    -0.32200
C1068       C  0.33124359  0.50955802  0.04985821     0.36800
H1069       H  0.39951055  0.54733514  0.11620171     0.17200
O1070       O  0.35416848  0.60861931  0.12155727    -0.59700
H1071       H  0.27647509  0.53868450  0.03324742     0.17200
O1072       O  0.32394337  0.47795202  0.02529175    -0.59800
H1073       H  0.30623378  0.46050137  0.04177928     0.44200
H1074       H  0.37160292  0.62443605  0.10349352     0.44200
C1075       C  0.39318284  0.49018357  0.92862998    -0.04900
C1076       C  0.35497407  0.50533271  0.93823662    -0.32300
C1077       C  0.32001019  0.48257463  0.93242002     0.36900
C1078       C  0.32322690  0.44328747  0.91889608    -0.05300
C1079       C  0.36019551  0.43078353  0.90307026    -0.32200
C1080       C  0.39464770  0.45445037  0.90639247     0.36800
H1081       H  0.35239030  0.53302160  0.95432501     0.17200
O1082       O  0.28387895  0.49636870  0.94667436    -0.59700
H1083       H  0.36330014  0.40100545  0.89183911     0.17200
O1084       O  0.43045417  0.43979850  0.89244797    -0.59800
H1085       H  0.43711585  0.45577076  0.86823892     0.44200
H1086       H  0.27860781  0.52075997  0.93151730     0.44200
C1087       C  0.09180742  0.44049234  0.31276915    -0.04900
C1088       C  0.06838023  0.47236728  0.29878104    -0.32300
C1089       C  0.05867261  0.50414093  0.32475305     0.36900
C1090       C  0.07300627  0.50460492  0.36509903    -0.05300
C1091       C  0.10214723  0.47659689  0.37597508    -0.32200
C1092       C  0.11034668  0.44412537  0.35105019     0.36800
H1093       H  0.05315208  0.47014145  0.26976947     0.17200
O1094       O  0.03151480  0.53176037  0.31203601    -0.59700
H1095       H  0.11392266  0.47642169  0.40674344     0.17200
O1096       O  0.13260733  0.41395859  0.36677365    -0.59800
H1097       H  0.11326461  0.39750116  0.38227195     0.44200
H1098       H  0.00477831  0.52033153  0.31783104     0.44200
C1099       C  0.92381429  0.51050436  0.36665327    -0.04900
C1100       C  0.90393858  0.54718868  0.36636701    -0.32300
C1101       C  0.88336497  0.56095951  0.33188871     0.36900
C1102       C  0.88260439  0.53854679  0.29585523    -0.05300
C1103       C  0.90147152  0.50114779  0.29671358    -0.32200
C1104       C  0.92130055  0.48701910  0.33156088     0.36800
H1105       H  0.90492943  0.56605161  0.39295088     0.17200
O1106       O  0.86444919  0.59657332  0.33404626    -0.59700
H1107       H  0.90250073  0.48287234  0.26977491     0.17200
O1108       O  0.94025857  0.45131909  0.32991746    -0.59800
H1109       H  0.91852637  0.43149530  0.33286591     0.44200
H1110       H  0.83757670  0.59089139  0.34552184     0.44200
C1111       C  0.09416770  0.61542326  0.68752437    -0.04900
C1112       C  0.10567339  0.62145554  0.64684154    -0.32300
C1113       C  0.09673681  0.59349230  0.61661278     0.36900
C1114       C  0.07539714  0.55911670  0.62662602    -0.05300
C1115       C  0.06892351  0.55068094  0.66800933    -0.32200
C1116       C  0.07873252  0.57822720  0.69844866     0.36800
H1117       H  0.11723151  0.64983483  0.63767098     0.17200
O1118       O  0.10425314  0.60252500  0.57672914    -0.59700
H1119       H  0.05241701  0.52451835  0.67646600     0.17200
O1120       O  0.06800419  0.57070769  0.73808227    -0.59800
H1121       H  0.03905456  0.57716148  0.73992694     0.44200
H1122       H  0.12963675  0.58883955  0.56998635     0.44200
C1123       C  0.91948815  0.47331263  0.62208979    -0.04900
C1124       C  0.87996490  0.48673228  0.62764404    -0.32300
C1125       C  0.85604484  0.47249545  0.66005725     0.36900
C1126       C  0.87189279  0.44502913  0.68808206    -0.05300
C1127       C  0.90952719  0.42853877  0.67952731    -0.32200
C1128       C  0.93285628  0.44182903  0.64692656     0.36800
H1129       H  0.86801750  0.50926153  0.60783395     0.17200
O1130       O  0.81727441  0.48550309  0.66421813    -0.59700
H1131       H  0.92228033  0.40668855  0.69964706     0.17200
O1132       O  0.96971240  0.42476367  0.64107568    -0.59800
H1133       H  0.96584921  0.40585736  0.61853217     0.44200
H1134       H  0.81908345  0.51429744  0.66840387     0.44200
C1135       C  0.07683376  0.39375594  0.49597969    -0.04900
C1136       C  0.10924826  0.39516344  0.52374279    -0.32300
C1137       C  0.12836248  0.36087846  0.53745859     0.36900
C1138       C  0.11561996  0.32407202  0.52334924    -0.05300
C1139       C  0.08384462  0.32256278  0.49503927    -0.32200
C1140       C  0.06474790  0.35679055  0.48127374     0.36800
H1141       H  0.11950277  0.42304591  0.53572873     0.17200
O1142       O  0.16010399  0.36386390  0.56373970    -0.59700
H1143       H  0.07351461  0.29446239  0.48363748     0.17200
O1144       O  0.03354159  0.35345628  0.45444606    -0.59800
H1145       H  0.04527860  0.35993326  0.42736243     0.44200
H1146       H  0.14784780  0.36619764  0.59131110     0.44200
C1147       C  0.93000729  0.39769898  0.48722751    -0.04900
C1148       C  0.90531867  0.40313473  0.45258693    -0.32300
C1149       C  0.90010250  0.37330772  0.42337480     0.36900
C1150       C  0.91801110  0.33642769  0.42895924    -0.05300
C1151       C  0.93676868  0.32891278  0.46676781    -0.32200
C1152       C  0.94297083  0.35917003  0.49569308     0.36800
H1153       H  0.89367041  0.43199823  0.44543038     0.17200
O1154       O  0.88156283  0.38206380  0.38729122    -0.59700
H1155       H  0.95051540  0.30054028  0.47198569     0.17200
O1156       O  0.96337386  0.35127649  0.53105120    -0.59800
H1157       H  0.99060631  0.34326044  0.52273186     0.44200
H1158       H  0.85286280  0.37521553  0.39164046     0.44200
C1159       C  0.93651537  0.63555874  0.50183255    -0.04900
C1160       C  0.95940536  0.66983108  0.49699017    -0.32300
C1161       C  0.95952715  0.69882627  0.52745100     0.36900
C1162       C  0.93726093  0.69335393  0.56371599    -0.05300
C1163       C  0.90959280  0.66262622  0.56544079    -0.32200
C1164       C  0.90843080  0.63419884  0.53438699     0.36800
H1165       H  0.98065992  0.67217934  0.47209532     0.17200
O1166       O  0.98586703  0.72958248  0.52421893    -0.59700
H1167       H  0.89167802  0.65840761  0.59267433     0.17200
O1168       O  0.88238677  0.60317359  0.53813723    -0.59800
H1169       H  0.89192785  0.58785163  0.56197151     0.44200
H1170       H  0.97204690  0.74914368  0.50770561     0.44200
C1171       C  0.07536127  0.63355352  0.49274272    -0.04900
C1172       C  0.07144095  0.66641969  0.51819826    -0.32300
C1173       C  0.08878105  0.70264035  0.50794488     0.36900
C1174       C  0.11081985  0.70714749  0.47106139    -0.05300
C1175       C  0.11517226  0.67424924  0.44578830    -0.32200
C1176       C  0.09828482  0.63779151  0.45641067     0.36800
H1177       H  0.05380100  0.66439939  0.54584646     0.17200
O1178       O  0.08240790  0.73368848  0.53383459    -0.59700
H1179       H  0.13151383  0.67678642  0.41735987     0.17200
O1180       O  0.10251721  0.60718642  0.42955867    -0.59800
H1181       H  0.12803472  0.59415288  0.43732059     0.44200
H1182       H  0.06140123  0.74988098  0.52067362     0.44200
C1183       C  0.37910636  0.08739097  0.68020217    -0.04900
C1184       C  0.42013954  0.09043565  0.68978923    -0.32300
C1185       C  0.44970060  0.08003403  0.66130352     0.36900
C1186       C  0.43842210  0.06677297  0.62249548    -0.05300
C1187       C  0.39770729  0.06824192  0.61143286    -0.32200
C1188       C  0.36816162  0.07864173  0.63980875     0.36800
H1189       H  0.42934859  0.09668273  0.72068447     0.17200
O1190       O  0.48909173  0.07874607  0.67318487    -0.59700
H1191       H  0.38823807  0.05787777  0.58190241     0.17200
O1192       O  0.32853708  0.07538853  0.62914275    -0.59800
H1193       H  0.31935714  0.10273257  0.62446278     0.44200
H1194       H  0.49364680  0.05141340  0.68253380     0.44200
C1195       C  0.53668305  0.91270040  0.63249460    -0.04900
C1196       C  0.57151132  0.92306802  0.65436675    -0.32300
C1197       C  0.58582473  0.89988504  0.68661990     0.36900
C1198       C  0.56447594  0.86619635  0.69889160    -0.05300
C1199       C  0.53234024  0.85351488  0.67425305    -0.32200
C1200       C  0.51875971  0.87610197  0.64110733     0.36800
H1201       H  0.58709789  0.95014554  0.64736966     0.17200
O1202       O  0.61872698  0.91242128  0.70795907    -0.59700
H1203       H  0.51616212  0.82699978  0.68212304     0.17200
O1204       O  0.48689847  0.86283680  0.61862419    -0.59800
H1205       H  0.46264729  0.87251569  0.63313719     0.44200
H1206       H  0.64176910  0.89855034  0.69533981     0.44200
C1207       C  0.32303748  0.07227100  0.42425671    -0.04900
C1208       C  0.31336812  0.05145598  0.46009171    -0.32300
C1209       C  0.34231295  0.04486649  0.49058680     0.36900
C1210       C  0.38156572  0.05967962  0.48579161    -0.05300
C1211       C  0.38893434  0.08528178  0.45268527    -0.32200
C1212       C  0.36070281  0.09029506  0.42149102     0.36800
H1213       H  0.28467059  0.03667038  0.46241830     0.17200
O1214       O  0.33316646  0.02035605  0.52237994    -0.59700
H1215       H  0.41849507  0.09773370  0.44809157     0.17200
O1216       O  0.37164742  0.10965836  0.38657435    -0.59800
H1217       H  0.38675999  0.09015138  0.37021738     0.44200
H1218       H  0.31674355  0.03644952  0.54135864     0.44200
C1219       C  0.30545013  0.89806893  0.52272580    -0.04900
C1220       C  0.30818498  0.92157995  0.48743340    -0.32300
C1221       C  0.34529521  0.93449593  0.47272605     0.36900
C1222       C  0.38067341  0.92331251  0.49303006    -0.05300
C1223       C  0.37807317  0.89897031  0.52730139    -0.32200
C1224       C  0.34099658  0.88693199  0.54252588     0.36800
H1225       H  0.28129370  0.93116853  0.47188607     0.17200
O1226       O  0.34639708  0.95938652  0.43981353    -0.59700
H1227       H  0.40485900  0.89046001  0.54371035     0.17200
O1228       O  0.34017538  0.86385840  0.57656179    -0.59800
H1229       H  0.34570656  0.88189630  0.59958171     0.44200
H1230       H  0.34276298  0.94236867  0.41563355     0.44200
C1231       C  0.52195470  0.06888440  0.37853788    -0.04900
C1232       C  0.51799488  0.05557662  0.33815625    -0.32300
C1233       C  0.54803886  0.06412471  0.30912978     0.36900
C1234       C  0.58228527  0.08625174  0.32055684    -0.05300
C1235       C  0.58235180  0.10433414  0.35896209    -0.32200
C1236       C  0.55209679  0.09644854  0.38746821     0.36800
H1237       H  0.49484053  0.03451474  0.33045423     0.17200
O1238       O  0.54626868  0.04662659  0.27147255    -0.59700
H1239       H  0.60824421  0.12114134  0.36854694     0.17200
O1240       O  0.55580524  0.11109533  0.42624889    -0.59800
H1241       H  0.53268257  0.12916601  0.42990240     0.44200
H1242       H  0.55438042  0.01907354  0.27590431     0.44200
C1243       C  0.51458928  0.92349805  0.37546054    -0.04900
C1244       C  0.53008608  0.93339274  0.33727613    -0.32300
C1245       C  0.51425611  0.91668524  0.30154157     0.36900
C1246       C  0.48206633  0.88921439  0.30329312    -0.05300
C1247       C  0.46754458  0.87837506  0.34164660    -0.32200
C1248       C  0.48349409  0.89500884  0.37739347     0.36800
H1249       H  0.55273723  0.95609264  0.33478470     0.17200
O1250       O  0.52861447  0.92981923  0.26486603    -0.59700
H1251       H  0.44332513  0.85728571  0.34395960     0.17200
O1252       O  0.46808377  0.88351182  0.41433428    -0.59800
H1253       H  0.44036065  0.89424679  0.41526729     0.44200
H1254       H  0.55570023  0.91829907  0.26221847     0.44200
C1255       C  0.62626500  0.06201404  0.52691969    -0.04900
C1256       C  0.66346592  0.04427752  0.51890644    -0.32300
C1257       C  0.69517284  0.04766012  0.54672853     0.36900
C1258       C  0.68984401  0.06864985  0.58353871    -0.05300
C1259       C  0.65480901  0.09049847  0.58904254    -0.32200
C1260       C  0.62321592  0.08770369  0.56096583     0.36800
H1261       H  0.66687278  0.02470402  0.49307305     0.17200
O1262       O  0.72927481  0.02598950  0.54022066    -0.59700
H1263       H  0.65042728  0.10697885  0.61697231     0.17200
O1264       O  0.58838732  0.10788293  0.56888715    -0.59800
H1265       H  0.57584717  0.09438428  0.59260926     0.44200
H1266       H  0.75085871  0.04548744  0.53539125     0.44200
C1267       C  0.70234909  0.90293290  0.48569279    -0.04900
C1268       C  0.69723787  0.92245627  0.52340433    -0.32300
C1269       C  0.65945023  0.93467545  0.53720634     0.36900
C1270       C  0.62513694  0.92752740  0.51349592    -0.05300
C1271       C  0.63000518  0.90754381  0.47610990    -0.32200
C1272       C  0.66800712  0.89632927  0.46166640     0.36800
H1273       H  0.72291580  0.92959896  0.54214164     0.17200
O1274       O  0.65680280  0.95527163  0.57302679    -0.59700
H1275       H  0.60441748  0.90235577  0.45655226     0.17200
O1276       O  0.67072754  0.87883076  0.42416945    -0.59800
H1277       H  0.66524363  0.89989813  0.40423053     0.44200
H1278       H  0.65823185  0.93504390  0.59504107     0.44200
loop_ 
_geom_bond_atom_site_label_1 
_geom_bond_atom_site_label_2 
_geom_bond_distance 
_geom_bond_site_symmetry_2 
_ccdc_geom_bond_type 
O1            C9   1.267       .  A
O1          Co21   1.953       .  S
O2           C10   1.260       .  A
O2          Co22   1.956       .  S
O3           C11   1.270       .  A
O3          Co23   2.007   1_565  S
O4           C12   1.279       .  A
O4          Co24   2.027   1_565  S
O5           C11   1.271       .  A
O5          Co22   2.011       .  S
O6           C12   1.281       .  A
O6          Co21   1.951       .  S
O7           C10   1.255       .  A
O7          Co24   1.953   1_565  S
O8            C9   1.290       .  A
O8          Co23   2.068   1_565  S
C9         C1270   1.492       .  S
C10        C1222   1.465       .  S
C11        C1195   1.503       .  S
C12        C1243   1.489       .  S
O13          C26   1.263       .  A
O13         Co21   2.022   1_545  S
O14          C27   1.264       .  A
O14         Co22   1.978   1_545  S
O15          C28   1.254       .  A
O15         Co23   1.952       .  S
O16          C29   1.254       .  A
O16         Co24   1.940       .  S
O17          C29   1.290       .  A
O17         Co22   2.087   1_545  S
O18          C28   1.276       .  A
O18         Co21   2.041   1_545  S
O19          C26   1.240       .  A
O19         Co24   1.976       .  S
O20          C27   1.272       .  A
O20         Co23   2.007       .  S
Co21         O25   1.991       .  S
Co22         O25   2.054       .  S
Co23         O25   2.004   1_545  S
Co24         O25   2.050   1_545  S
C26        C1231   1.482       .  S
C27        C1186   1.475       .  S
C28        C1255   1.493       .  S
C29        C1210   1.501       .  S
O30          C38   1.251       .  A
O30         Co50   1.953       .  S
O31          C39   1.259       .  A
O31         Co51   1.947       .  S
O32          C40   1.280       .  A
O32         Co52   2.053   1_655  S
O33          C41   1.263       .  A
O33         Co53   1.981   1_655  S
O34          C40   1.275       .  A
O34         Co51   1.955       .  S
O35          C41   1.275       .  A
O35         Co50   2.023       .  S
O36          C39   1.294       .  A
O36         Co53   2.102   1_655  S
O37          C38   1.271       .  A
O37         Co52   2.047   1_655  S
C38        C1159   1.494       .  S
C39        C1147   1.509       .  S
C40        C1099   1.499       .  S
C41        C1123   1.502       .  S
O42          C55   1.270       .  A
O42         Co50   2.003   1_455  S
O43          C56   1.280       .  A
O43         Co51   2.042   1_455  S
O44          C57   1.267       .  A
O44         Co52   1.949       .  S
O45          C58   1.252       .  A
O45         Co53   1.951       .  S
O46          C58   1.277       .  A
O46         Co51   2.064   1_455  S
O47          C57   1.296       .  A
O47         Co50   2.090   1_455  S
O48          C55   1.275       .  A
O48         Co53   2.016       .  S
O49          C56   1.277       .  A
O49         Co52   1.964       .  S
Co50         O54   1.999   1_655  S
Co51         O54   2.009   1_655  S
Co52         O54   2.054       .  S
Co53         O54   2.022       .  S
C55        C1114   1.489       .  S
C56        C1090   1.492       .  S
C57        C1171   1.504       .  S
C58        C1135   1.498       .  S
O59          C67   1.249       .  A
O59         Co79   1.950       .  S
O60          C68   1.255       .  A
O60         Co80   1.955       .  S
O61          C69   1.252       .  A
O61         Co81   1.971       .  S
O62          C70   1.254       .  A
O62         Co82   1.981   1_554  S
O63          C69   1.260       .  A
O63         Co80   2.003       .  S
O64          C70   1.257       .  A
O64         Co79   1.990       .  S
O65          C68   1.284       .  A
O65         Co82   2.076   1_554  S
O66          C67   1.283       .  A
O66         Co81   2.089       .  S
C67        C1063   1.499       .  S
C68        C1015   1.504       .  S
C69         C991   1.490       .  S
C70        C1039   1.482       .  S
O71          C84   1.295       .  A
O71         Co79   2.065   1_556  S
O72          C85   1.294       .  A
O72         Co80   2.063   1_556  S
O73          C86   1.256       .  A
O73         Co81   1.951   1_556  S
O74          C87   1.262       .  A
O74         Co82   1.960       .  S
O75          C87   1.280       .  A
O75         Co80   2.051   1_556  S
O76          C86   1.280       .  A
O76         Co79   2.069   1_556  S
O77          C84   1.283       .  A
O77         Co82   1.925       .  S
O78          C85   1.281       .  A
O78         Co81   1.918   1_556  S
Co79         O83   2.073       .  S
Co80         O83   2.074       .  S
Co81         O83   1.999       .  S
Co82         O83   2.006   1_556  S
C84        C1051   1.500       .  S
C85        C1003   1.494       .  S
C86        C1075   1.508       .  S
C87        C1027   1.506       .  S
N88          C92   1.368       .  A
N88          C89   1.368       .  A
N88         C979   1.461       .  S
C89         C967   1.497       .  S
C89          C90   1.385       .  A
C90          C91   1.366       .  A
C90          H93   1.081       .  S
C91          C92   1.382       .  A
C91          H94   1.082       .  S
C92        C1198   1.500       .  S
C95         C955   1.520       .  S
C95          C96   1.413       .  A
C95         C100   1.427       .  A
C96          C97   1.412       .  A
C96         H101   1.083       .  S
C97         C982   1.511       .  S
C97          C98   1.415       .  A
C98          C99   1.415       .  A
C98         H102   1.082       .  S
C99         C943   1.534       .  S
C99         C100   1.428       .  A
C100        H103   1.081       .  S
N104        C108   1.362       .  A
N104        C105   1.379       .  A
N104        C958   1.466       .  S
C105        C934   1.521       .  S
C105        C106   1.392   1_655  A
C106        C107   1.360   1_455  A
C106        H109   1.076       .  S
C107        C108   1.375       .  A
C107        H110   1.083   1_655  S
C108       C1162   1.486       .  S
N111        C115   1.373       .  A
N111        C112   1.365       .  A
N111        C946   1.468       .  S
C112        C919   1.501       .  S
C112        C113   1.381       .  A
C113        C114   1.366       .  A
C113        H116   1.082       .  S
C114        C115   1.388       .  A
C114        H117   1.083       .  S
C115       C1030   1.512       .  S
C118        C898   1.486       .  S
C118        C119   1.403       .  A
C118        C123   1.401       .  A
C119        C120   1.413       .  A
C119        H124   1.084       .  S
C120        C907   1.498       .  S
C120        C121   1.415       .  A
C121        C122   1.413       .  A
C121        H125   1.083       .  S
C122        C886   1.493       .  S
C122        C123   1.407       .  A
C123        H126   1.084       .  S
N127        C131   1.370       .  A
N127        C128   1.367       .  A
N127        C910   1.456       .  S
C128       C1078   1.495       .  S
C128        C129   1.381       .  A
C129        C130   1.366       .  A
C129        H132   1.083       .  S
C130        C131   1.382       .  A
C130        H133   1.082   1_556  S
C131        C874   1.496       .  S
N134        C138   1.360       .  A
N134        C135   1.361       .  A
N134        C895   1.452       .  S
C135        C859   1.485       .  S
C135        C136   1.380       .  A
C136        C137   1.368       .  A
C136        H139   1.082       .  S
C137        C138   1.386       .  A
C137        H140   1.083       .  S
C138       C1183   1.485       .  S
N141        C145   1.361       .  A
N141        C142   1.369       .  A
N141        C883   1.453       .  S
C142       C1138   1.492       .  S
C142        C143   1.383       .  A
C143        C144   1.365       .  A
C143        H146   1.083       .  S
C144        C145   1.381       .  A
C144        H147   1.083       .  S
C145        C847   1.484       .  S
O148        C156   1.267       .  A
O148       Co168   1.993       .  S
O149        C157   1.278   1_565  A
O149       Co169   2.044       .  S
O150        C158   1.249       .  A
O150       Co170   1.950   1_554  S
O151        C159   1.264       .  A
O151       Co171   1.948       .  S
O152        C158   1.274       .  A
O152       Co169   2.057       .  S
O153        C159   1.298   1_556  A
O153       Co168   2.103       .  S
O154        C157   1.274       .  A
O154       Co171   1.960       .  S
O155        C156   1.273   1_565  A
O155       Co170   2.000       .  S
C156        C862   1.494       .  S
C157        C811   1.485   1_545  S
C158        C790   1.496   1_554  S
C159        C826   1.499       .  S
O160        C173   1.248       .  A
O160       Co168   1.950   1_554  S
O161        C174   1.262       .  A
O161       Co169   1.949       .  S
O162        C175   1.267       .  A
O162       Co170   1.994       .  S
O163        C176   1.279   1_545  A
O163       Co171   2.042       .  S
O164        C176   1.278       .  A
O164       Co169   1.955       .  S
O165        C175   1.277   1_545  A
O165       Co168   2.025       .  S
O166        C173   1.269       .  A
O166       Co171   2.045       .  S
O167        C174   1.292   1_556  A
O167       Co170   2.083       .  S
Co168       O172   1.995       .  S
Co169       O172   2.033   1_564  S
Co170       O172   1.994   1_565  S
Co171       O172   2.040   1_554  S
C173        C838   1.489       .  S
C174        C778   1.502       .  S
C175        C970   1.490       .  S
C176        C799   1.496       .  S
C177        C766   1.503       .  S
C177        C178   1.422       .  A
C177        C182   1.410       .  A
C178        C179   1.415       .  A
C178        H183   1.083       .  S
C179        C751   1.501       .  S
C179        C180   1.408       .  A
C180        C181   1.403       .  A
C180        H184   1.084       .  S
C181        C742   1.490       .  S
C181        C182   1.405       .  A
C182        H185   1.084       .  S
N186        C190   1.371       .  A
N186        C187   1.357       .  A
N186        C763   1.456       .  S
C187        C787   1.483       .  S
C187        C188   1.376       .  A
C188        C189   1.365       .  A
C188        H191   1.079       .  S
C189        C190   1.387       .  A
C189        H192   1.081       .  S
C190       C1054   1.506       .  S
N193        C197   1.367       .  A
N193        C194   1.362       .  A
N193        C754   1.459       .  S
C194        C730   1.487       .  S
C194        C195   1.384       .  A
C195        C196   1.365       .  A
C195        H198   1.082       .  S
C196        C197   1.381       .  A
C196        H199   1.083       .  S
C197       C1219   1.489       .  S
N200        C204   1.367       .  A
N200        C201   1.373       .  A
N200        C739   1.463       .  S
C201        C715   1.514       .  S
C201        C202   1.387       .  A
C202        C203   1.361       .  A
C202        H205   1.080   1_455  S
C203        C204   1.379       .  A
C203        H206   1.082       .  S
C204       C1111   1.492       .  S
C207        C694   1.516       .  S
C207        C208   1.419       .  A
C207        C212   1.415       .  A
C208        C209   1.415       .  A
C208        H213   1.083       .  S
C209        C679   1.505       .  S
C209        C210   1.412       .  A
C210        C211   1.412       .  A
C210        H214   1.084       .  S
C211        C703   1.512       .  S
C211        C212   1.417       .  A
C212        H215   1.083       .  S
N216        C220   1.371       .  A
N216        C217   1.369       .  A
N216        C706   1.460       .  S
C217        C670   1.499       .  S
C217        C218   1.381       .  A
C218        C219   1.363       .  A
C218        H221   1.080   1_655  S
C219        C220   1.383       .  A
C219        H222   1.081       .  S
C220       C1150   1.500       .  S
N223        C227   1.367       .  A
N223        C224   1.377       .  A
N223        C691   1.465       .  S
C224        C655   1.516       .  S
C224        C225   1.389   1_554  A
C225        C226   1.359       .  A
C225        H228   1.079       .  S
C226        C227   1.377   1_556  A
C226        H229   1.083       .  S
C227       C1018   1.493       .  S
N230        C234   1.366       .  A
N230        C231   1.370       .  A
N230        C682   1.472       .  S
C231        C802   1.505       .  S
C231        C232   1.384       .  A
C232        C233   1.365       .  A
C232        H235   1.082   1_545  S
C233        C234   1.384       .  A
C233        H236   1.083       .  S
C234       C1234   1.495       .  S
O237        C245   1.254   1_556  A
O237       Co257   1.955       .  S
O238        C246   1.256   1_554  A
O238       Co258   1.946       .  S
O239        C247   1.252       .  A
O239       Co259   1.978       .  S
O240        C248   1.254       .  A
O240       Co260   1.989       .  S
O241        C247   1.254   1_455  A
O241       Co258   1.988       .  S
O242        C248   1.263   1_655  A
O242       Co257   2.003       .  S
O243        C246   1.285       .  A
O243       Co260   2.065       .  S
O244        C245   1.282       .  A
O244       Co259   2.072       .  S
C245        C922   1.501   1_554  S
C246        C643   1.489       .  S
C247        C619   1.474       .  S
C248        C718   1.496       .  S
O249        C262   1.286   1_655  A
O249       Co257   2.041       .  S
O250        C263   1.298   1_455  A
O250       Co258   2.080       .  S
O251        C264   1.260   1_554  A
O251       Co259   1.946       .  S
O252        C265   1.266   1_556  A
O252       Co260   1.973       .  S
O253        C265   1.276       .  A
O253       Co258   2.027       .  S
O254        C264   1.282       .  A
O254       Co257   2.059       .  S
O255        C262   1.285       .  A
O255       Co260   1.941       .  S
O256        C263   1.278       .  A
O256       Co259   1.912       .  S
Co257       O261   2.062       .  S
Co258       O261   2.063   1_454  S
Co259       O261   1.995   1_554  S
Co260       O261   2.016   1_455  S
C262        C610   1.480   1_455  S
C263        C631   1.498   1_655  S
C264        C658   1.485       .  S
C265        C871   1.505   1_554  S
N266        C270   1.364       .  A
N266        C267   1.367       .  A
N266        C598   1.465       .  S
C267        C583   1.493       .  S
C267        C268   1.382       .  A
C268        C269   1.363       .  A
C268        H271   1.083   1_545  S
C269        C270   1.383       .  A
C269        H272   1.083       .  S
C270       C1207   1.488       .  S
C273        C595   1.511       .  S
C273        C274   1.417       .  A
C273        C278   1.414       .  A
C274        C275   1.416       .  A
C274        H279   1.083       .  S
C275        C559   1.515       .  S
C275        C276   1.416       .  A
C276        C277   1.412       .  A
C276        H280   1.083       .  S
C277        C571   1.510       .  S
C277        C278   1.417       .  A
C278        H281   1.083       .  S
N282        C286   1.369       .  A
N282        C283   1.370       .  A
N282        C574   1.481       .  S
C283        C634   1.508       .  S
C283        C284   1.386       .  A
C284        C285   1.366       .  A
C284        H287   1.082       .  S
C285        C286   1.381       .  A
C285        H288   1.083       .  S
C286       C1087   1.499       .  S
N289        C293   1.379       .  A
N289        C290   1.367       .  A
N289        C562   1.458       .  S
C290        C994   1.481       .  S
C290        C291   1.376       .  A
C291        C292   1.358       .  A
C291        H294   1.083       .  S
C292        C293   1.389       .  A
C292        H295   1.080   1_554  S
C293        C823   1.502       .  S
C296        C526   1.501       .  S
C296        C297   1.408       .  A
C296        C301   1.411       .  A
C297        C298   1.407       .  A
C297        H302   1.084       .  S
C298        C535   1.499       .  S
C298        C299   1.411       .  A
C299        C300   1.417       .  A
C299        H303   1.083       .  S
C300        C550   1.514       .  S
C300        C301   1.418       .  A
C301        H304   1.082       .  S
N305        C309   1.363       .  A
N305        C306   1.367       .  A
N305        C547   1.471       .  S
C306       C1126   1.503       .  S
C306        C307   1.386       .  A
C307        C308   1.369       .  A
C307        H310   1.081       .  S
C308        C309   1.385       .  A
C308        H311   1.083       .  S
C309        C607   1.504       .  S
N312        C316   1.367       .  A
N312        C313   1.356       .  A
N312        C538   1.456       .  S
C313        C835   1.482       .  S
C313        C314   1.382       .  A
C314        C315   1.366       .  A
C314        H317   1.082       .  S
C315        C316   1.388       .  A
C315        H318   1.080       .  S
C316       C1006   1.507       .  S
N319        C323   1.368       .  A
N319        C320   1.361       .  A
N319        C523   1.457       .  S
C320       C1258   1.483       .  S
C320        C321   1.380       .  A
C321        C322   1.362       .  A
C321        H324   1.081       .  S
C322        C323   1.384       .  A
C322        H325   1.083   1_545  S
C323        C514   1.492       .  S
C326        C475   1.499       .  S
C326        C327   1.407       .  A
C326        C331   1.410       .  A
C327        C328   1.409       .  A
C327        H332   1.084       .  S
C328        C487   1.509       .  S
C328        C329   1.412       .  A
C329        C330   1.420       .  A
C329        H333   1.083       .  S
C330        C499   1.502       .  S
C330        C331   1.415       .  A
C331        H334   1.083       .  S
N335        C339   1.364       .  A
N335        C336   1.370       .  A
N335        C502   1.461       .  S
C336       C1267   1.502       .  S
C336        C337   1.384       .  A
C337        C338   1.362       .  A
C337        H340   1.082       .  S
C338        C339   1.380       .  A
C338        H341   1.081       .  S
C339        C463   1.487       .  S
N342        C346   1.376       .  A
N342        C343   1.363       .  A
N342        C490   1.458       .  S
C343        C622   1.483       .  S
C343        C344   1.379       .  A
C344        C345   1.362       .  A
C344        H347   1.083       .  S
C345        C346   1.387       .  A
C345        H348   1.082       .  S
C346       C1102   1.512       .  S
N349        C353   1.374       .  A
N349        C350   1.364       .  A
N349        C478   1.456       .  S
C350       C1042   1.484       .  S
C350        C351   1.379       .  A
C351        C352   1.361       .  A
C351        H354   1.083       .  S
C352        C353   1.385       .  A
C352        H355   1.083   1_554  S
C353        C775   1.501       .  S
C356        C439   1.513       .  S
C356        C357   1.421       .  A
C356        C361   1.416       .  A
C357        C358   1.423       .  A
C357        H362   1.082       .  S
C358        C427   1.523       .  S
C358        C359   1.419       .  A
C359        C360   1.410       .  A
C359        H363   1.081       .  S
C360        C451   1.509       .  S
C360        C361   1.407       .  A
C361        H364   1.084       .  S
N365        C369   1.359       .  A
N365        C366   1.372       .  A
N365        C454   1.466       .  S
C366       C1246   1.504       .  S
C366        C367   1.384       .  A
C367        C368   1.366       .  A
C367        H370   1.083       .  S
C368        C369   1.382       .  A
C368        H371   1.083       .  S
C369        C814   1.483       .  S
N372        C376   1.363       .  A
N372        C373   1.370       .  A
N372        C442   1.465       .  S
C373       C1174   1.503       .  S
C373        C374   1.384       .  A
C374        C375   1.365       .  A
C374        H377   1.082       .  S
C375        C376   1.384       .  A
C375        H378   1.083       .  S
C376        C415   1.488       .  S
N379        C383   1.366       .  A
N379        C380   1.362       .  A
N379        C430   1.462       .  S
C380       C1066   1.483       .  S
C380        C381   1.381       .  A
C381        C382   1.362       .  A
C381        H384   1.083       .  S
C382        C383   1.383       .  A
C382        H385   1.083   1_554  S
C383        C646   1.483       .  S
O386        C394   1.280   1_655  A
O386       Co406   2.059       .  S
O387        C395   1.264       .  A
O387       Co407   1.977       .  S
O388        C396   1.264       .  A
O388       Co408   1.947   1_545  S
O389        C397   1.252   1_545  A
O389       Co409   1.951       .  S
O390        C396   1.292       .  A
O390       Co407   2.080       .  S
O391        C397   1.275       .  A
O391       Co406   2.046       .  S
O392        C395   1.274       .  A
O392       Co409   2.014   1_455  S
O393        C394   1.275       .  A
O393       Co408   1.957       .  S
C394        C931   1.503       .  S
C395        C850   1.476       .  S
C396        C727   1.498       .  S
C397        C511   1.490   1_565  S
O398        C411   1.261   1_565  A
O398       Co406   1.945       .  S
O399        C412   1.254   1_545  A
O399       Co407   1.950       .  S
O400        C413   1.277   1_455  A
O400       Co408   2.046       .  S
O401        C414   1.266       .  A
O401       Co409   1.984       .  S
O402        C414   1.275   1_455  A
O402       Co407   2.013       .  S
O403        C413   1.276       .  A
O403       Co406   1.963       .  S
O404        C411   1.293       .  A
O404       Co409   2.093       .  S
O405        C412   1.273       .  A
O405       Co408   2.042       .  S
Co406       O410   2.029   1_665  S
Co407       O410   2.015       .  S
Co408       O410   2.015   1_565  S
Co409       O410   2.010   1_655  S
C411        C466   1.502   1_545  S
C412        C586   1.482   1_565  S
C413        C418   1.491   1_655  S
C414        C667   1.498       .  S
C415        C416   1.411       .  A
C415        C420   1.404       .  A
C416        C417   1.410       .  A
C416        H421   1.084       .  S
C417        C418   1.408       .  A
C417        O422   1.372   1_455  S
C418        C419   1.414       .  A
C419        C420   1.402       .  A
C419        H423   1.084       .  S
C420        O424   1.373       .  S
O422        H426   0.982       .  S
O424        H425   0.992       .  S
C427        C428   1.417       .  A
C427        C432   1.418       .  A
C428        C429   1.421       .  A
C428        H433   1.083       .  S
C429        C430   1.410       .  A
C429        O434   1.370       .  S
C430        C431   1.408       .  A
C431        C432   1.407       .  A
C431        H435   1.083       .  S
C432        O436   1.373       .  S
O434        H438   0.993       .  S
O436        H437   0.994       .  S
C439        C440   1.405       .  A
C439        C444   1.416       .  A
C440        C441   1.405       .  A
C440        H445   1.084       .  S
C441        C442   1.420       .  A
C441        O446   1.371       .  S
C442        C443   1.411       .  A
C443        C444   1.419       .  A
C443        H447   1.083       .  S
C444        O448   1.371       .  S
O446        H450   0.991       .  S
O448        H449   0.995       .  S
C451        C452   1.409       .  A
C451        C456   1.410       .  A
C452        C453   1.415       .  A
C452        H457   1.083       .  S
C453        C454   1.416       .  A
C453        O458   1.371       .  S
C454        C455   1.415       .  A
C455        C456   1.411       .  A
C455        H459   1.082       .  S
C456        O460   1.371       .  S
O458        H462   0.991       .  S
O460        H461   0.993       .  S
C463        C464   1.411       .  A
C463        C468   1.402       .  A
C464        C465   1.411   1_565  A
C464        H469   1.084       .  S
C465        C466   1.410   1_545  A
C465        O470   1.370       .  S
C466        C467   1.415       .  A
C467        C468   1.402       .  A
C467        H471   1.083       .  S
C468        O472   1.373       .  S
O470        H474   0.994       .  S
O472        H473   0.989       .  S
C475        C476   1.401       .  A
C475        C480   1.414       .  A
C476        C477   1.400       .  A
C476        H481   1.084       .  S
C477        C478   1.417       .  A
C477        O482   1.371       .  S
C478        C479   1.410       .  A
C479        C480   1.417       .  A
C479        H483   1.083       .  S
C480        O484   1.371       .  S
O482        H486   0.992       .  S
O484        H485   0.991       .  S
C487        C488   1.405       .  A
C487        C492   1.417       .  A
C488        C489   1.402       .  A
C488        H493   1.084       .  S
C489        C490   1.414       .  A
C489        O494   1.371       .  S
C490        C491   1.409       .  A
C491        C492   1.419       .  A
C491        H495   1.083       .  S
C492        O496   1.371       .  S
O494        H498   0.992       .  S
O496        H497   0.992       .  S
C499        C500   1.401       .  A
C499        C504   1.414       .  A
C500        C501   1.403       .  A
C500        H505   1.084       .  S
C501        C502   1.422       .  A
C501        O506   1.371       .  S
C502        C503   1.408       .  A
C503        C504   1.416       .  A
C503        H507   1.083       .  S
C504        O508   1.371       .  S
O506        H510   0.994       .  S
O508        H509   0.992       .  S
C511        C512   1.416       .  A
C511        C516   1.403   1_545  A
C512        C513   1.406       .  A
C512        H517   1.083       .  S
C513        C514   1.403       .  A
C513        O518   1.372       .  S
C514        C515   1.412   1_545  A
C515        C516   1.399       .  A
C515        H519   1.083       .  S
C516        O520   1.369       .  S
O518        H522   0.989       .  S
O520        H521   0.990       .  S
C523        C524   1.412       .  A
C523        C528   1.409       .  A
C524        C525   1.402       .  A
C524        H529   1.083       .  S
C525        C526   1.411       .  A
C525        O530   1.372       .  S
C526        C527   1.410       .  A
C527        C528   1.415       .  A
C527        H531   1.083       .  S
C528        O532   1.370       .  S
O530        H534   0.992       .  S
O532        H533   0.991       .  S
C535        C536   1.408       .  A
C535        C540   1.411       .  A
C536        C537   1.410       .  A
C536        H541   1.083       .  S
C537        C538   1.410       .  A
C537        O542   1.370       .  S
C538        C539   1.411       .  A
C539        C540   1.405       .  A
C539        H543   1.083       .  S
C540        O544   1.372       .  S
O542        H546   0.993       .  S
O544        H545   0.993       .  S
C547        C548   1.410       .  A
C547        C552   1.426       .  A
C548        C549   1.410       .  A
C548        H553   1.082       .  S
C549        C550   1.414       .  A
C549        O554   1.372       .  S
C550        C551   1.409       .  A
C551        C552   1.412       .  A
C551        H555   1.083       .  S
C552        O556   1.372       .  S
O554        H558   0.993       .  S
O556        H557   0.988       .  S
C559        C560   1.412       .  A
C559        C564   1.416       .  A
C560        C561   1.415       .  A
C560        H565   1.083       .  S
C561        C562   1.413       .  A
C561        O566   1.371       .  S
C562        C563   1.405       .  A
C563        C564   1.411       .  A
C563        H567   1.083       .  S
C564        O568   1.371       .  S
O566        H570   0.993       .  S
O568        H569   0.994       .  S
C571        C572   1.409       .  A
C571        C576   1.406       .  A
C572        C573   1.418       .  A
C572        H577   1.083       .  S
C573        C574   1.425       .  A
C573        O578   1.370       .  S
C574        C575   1.417       .  A
C575        C576   1.409       .  A
C575        H579   1.073       .  S
C576        O580   1.372       .  S
O578        H582   0.993       .  S
O580        H581   0.991       .  S
C583        C584   1.415   1_545  A
C583        C588   1.404       .  A
C584        C585   1.400       .  A
C584        H589   1.083       .  S
C585        C586   1.403   1_565  A
C585        O590   1.371       .  S
C586        C587   1.412       .  A
C587        C588   1.402       .  A
C587        H591   1.084       .  S
C588        O592   1.370       .  S
O590        H594   0.990       .  S
O592        H593   0.994       .  S
C595        C596   1.412       .  A
C595        C600   1.410       .  A
C596        C597   1.419       .  A
C596        H601   1.083       .  S
C597        C598   1.411       .  A
C597        O602   1.371       .  S
C598        C599   1.415       .  A
C599        C600   1.408       .  A
C599        H603   1.082       .  S
C600        O604   1.372       .  S
O602        H606   0.989       .  S
O604        H605   0.990       .  S
C607        C608   1.403       .  A
C607        C612   1.419       .  A
C608        C609   1.412       .  A
C608        H613   1.082       .  S
C609        C610   1.415       .  A
C609        O614   1.371       .  S
C610        C611   1.402       .  A
C611        C612   1.404       .  A
C611        H615   1.084       .  S
C612        O616   1.372       .  S
O614        H618   0.994   1_655  S
O616        H617   0.996       .  S
C619        C620   1.403       .  A
C619        C624   1.408       .  A
C620        C621   1.405       .  A
C620        H625   1.084       .  S
C621        C622   1.411       .  A
C621        O626   1.372       .  S
C622        C623   1.405       .  A
C623        C624   1.403       .  A
C623        H627   1.084       .  S
C624        O628   1.371       .  S
O626        H630   0.992       .  S
O628        H629   0.995       .  S
C631        C632   1.408       .  A
C631        C636   1.412   1_455  A
C632        C633   1.403       .  A
C632        H637   1.083       .  S
C633        C634   1.411       .  A
C633        O638   1.373       .  S
C634        C635   1.415       .  A
C635        C636   1.410   1_455  A
C635        H639   1.083   1_455  S
C636        O640   1.372       .  S
O638        H642   0.988       .  S
O640        H641   0.992       .  S
C643        C644   1.418   1_556  A
C643        C648   1.404       .  A
C644        C645   1.400       .  A
C644        H649   1.083       .  S
C645        C646   1.397       .  A
C645        O650   1.372       .  S
C646        C647   1.412   1_554  A
C647        C648   1.403       .  A
C647        H651   1.082       .  S
C648        O652   1.371       .  S
O650        H654   0.991       .  S
O652        H653   0.991       .  S
C655        C656   1.422   1_554  A
C655        C660   1.411       .  A
C656        C657   1.404       .  A
C656        H661   1.078       .  S
C657        C658   1.397       .  A
C657        O662   1.370       .  S
C658        C659   1.407   1_556  A
C659        C660   1.404       .  A
C659        H663   1.075       .  S
C660        O664   1.369       .  S
O662        H666   0.989       .  S
O664        H665   0.993       .  S
C667        C668   1.403       .  A
C667        C672   1.419       .  A
C668        C669   1.410       .  A
C668        H673   1.083   1_655  S
C669        C670   1.417       .  A
C669        O674   1.373   1_655  S
C670        C671   1.402       .  A
C671        C672   1.403       .  A
C671        H675   1.083       .  S
C672        O676   1.372       .  S
O674        H678   0.991       .  S
O676        H677   0.992       .  S
C679        C680   1.401       .  A
C679        C684   1.411       .  A
C680        C681   1.410       .  A
C680        H685   1.084       .  S
C681        C682   1.428       .  A
C681        O686   1.372       .  S
C682        C683   1.411       .  A
C683        C684   1.418       .  A
C683        H687   1.083       .  S
C684        O688   1.372       .  S
O686        H690   0.991       .  S
O688        H689   0.988       .  S
C691        C692   1.412       .  A
C691        C696   1.411       .  A
C692        C693   1.410       .  A
C692        H697   1.083       .  S
C693        C694   1.413       .  A
C693        O698   1.371       .  S
C694        C695   1.414       .  A
C695        C696   1.419       .  A
C695        H699   1.083       .  S
C696        O700   1.371       .  S
O698        H702   0.993       .  S
O700        H701   0.994       .  S
C703        C704   1.415       .  A
C703        C708   1.412       .  A
C704        C705   1.418       .  A
C704        H709   1.083       .  S
C705        C706   1.408       .  A
C705        O710   1.370       .  S
C706        C707   1.412       .  A
C707        C708   1.405       .  A
C707        H711   1.083       .  S
C708        O712   1.372       .  S
O710        H714   0.993       .  S
O712        H713   0.991       .  S
C715        C716   1.418       .  A
C715        C720   1.412       .  A
C716        C717   1.406   1_455  A
C716        H721   1.080   1_455  S
C717        C718   1.404   1_655  A
C717        O722   1.371       .  S
C718        C719   1.413       .  A
C719        C720   1.406       .  A
C719        H723   1.084       .  S
C720        O724   1.371       .  S
O722        H726   0.993       .  S
O724        H725   0.993       .  S
C727        C728   1.407       .  A
C727        C732   1.419   1_545  A
C728        C729   1.404   1_545  A
C728        H733   1.084       .  S
C729        C730   1.415       .  A
C729        O734   1.373       .  S
C730        C731   1.398       .  A
C731        C732   1.407       .  A
C731        H735   1.084       .  S
C732        O736   1.373       .  S
O734        H738   0.990       .  S
O736        H737   0.992       .  S
C739        C740   1.416       .  A
C739        C744   1.415       .  A
C740        C741   1.407       .  A
C740        H745   1.082       .  S
C741        C742   1.405       .  A
C741        O746   1.372       .  S
C742        C743   1.404       .  A
C743        C744   1.409       .  A
C743        H747   1.084       .  S
C744        O748   1.370       .  S
O746        H750   0.998       .  S
O748        H749   0.992       .  S
C751        C752   1.410       .  A
C751        C756   1.409       .  A
C752        C753   1.417       .  A
C752        H757   1.083       .  S
C753        C754   1.412       .  A
C753        O758   1.371       .  S
C754        C755   1.411       .  A
C755        C756   1.401       .  A
C755        H759   1.083       .  S
C756        O760   1.372       .  S
O758        H762   0.993       .  S
O760        H761   0.992       .  S
C763        C764   1.411       .  A
C763        C768   1.410       .  A
C764        C765   1.404       .  A
C764        H769   1.083       .  S
C765        C766   1.409       .  A
C765        O770   1.371       .  S
C766        C767   1.412       .  A
C767        C768   1.413       .  A
C767        H771   1.083       .  S
C768        O772   1.371       .  S
O770        H774   0.991       .  S
O772        H773   0.987       .  S
C775        C776   1.411       .  A
C775        C780   1.407       .  A
C776        C777   1.399   1_554  A
C776        H781   1.084       .  S
C777        C778   1.405   1_556  A
C777        O782   1.366       .  S
C778        C779   1.417       .  A
C779        C780   1.413       .  A
C779        H783   1.083       .  S
C780        O784   1.370       .  S
O782        H786   0.993       .  S
O784        H785   0.992       .  S
C787        C788   1.408       .  A
C787        C792   1.400       .  A
C788        C789   1.407   1_556  A
C788        H793   1.084       .  S
C789        C790   1.408   1_554  A
C789        O794   1.371       .  S
C790        C791   1.416       .  A
C791        C792   1.402       .  A
C791        H795   1.084       .  S
C792        O796   1.371       .  S
O794        H798   0.991       .  S
O796        H797   0.992       .  S
C799        C800   1.414   1_565  A
C799        C804   1.404       .  A
C800        C801   1.402       .  A
C800        H805   1.083       .  S
C801        C802   1.406       .  A
C801        O806   1.371       .  S
C802        C803   1.419   1_545  A
C803        C804   1.406       .  A
C803        H807   1.081       .  S
C804        O808   1.371       .  S
O806        H810   0.991       .  S
O808        H809   0.993       .  S
C811        C812   1.412       .  A
C811        C816   1.407       .  A
C812        C813   1.401       .  A
C812        H817   1.084       .  S
C813        C814   1.402       .  A
C813        O818   1.371       .  S
C814        C815   1.409       .  A
C815        C816   1.408       .  A
C815        H819   1.084       .  S
C816        O820   1.372   1_565  S
O818        H822   0.991       .  S
O820        H821   0.995       .  S
C823        C824   1.397       .  A
C823        C828   1.426   1_554  A
C824        C825   1.403       .  A
C824        H829   1.082       .  S
C825        C826   1.422       .  A
C825        O830   1.368       .  S
C826        C827   1.400   1_554  A
C827        C828   1.408       .  A
C827        H831   1.084       .  S
C828        O832   1.373       .  S
O830        H834   0.992       .  S
O832        H833   0.992       .  S
C835        C836   1.395       .  A
C835        C840   1.414       .  A
C836        C837   1.401       .  A
C836        H841   1.084       .  S
C837        C838   1.420   1_556  A
C837        O842   1.372       .  S
C838        C839   1.402       .  A
C839        C840   1.402   1_554  A
C839        H843   1.084       .  S
C840        O844   1.372       .  S
O842        H846   0.993       .  S
O844        H845   0.991       .  S
C847        C848   1.405       .  A
C847        C852   1.407       .  A
C848        C849   1.404       .  A
C848        H853   1.084       .  S
C849        C850   1.408       .  A
C849        O854   1.372   1_455  S
C850        C851   1.407       .  A
C851        C852   1.406       .  A
C851        H855   1.084       .  S
C852        O856   1.372       .  S
O854        H858   0.992       .  S
O856        H857   0.994       .  S
C859        C860   1.402       .  A
C859        C864   1.409       .  A
C860        C861   1.401       .  A
C860        H865   1.082       .  S
C861        C862   1.419       .  A
C861        O866   1.372       .  S
C862        C863   1.406       .  A
C863        C864   1.403       .  A
C863        H867   1.083       .  S
C864        O868   1.371       .  S
O866        H870   0.989       .  S
O868        H869   0.993       .  S
C871        C872   1.409   1_556  A
C871        C876   1.417       .  A
C872        C873   1.397   1_554  A
C872        H877   1.083       .  S
C873        C874   1.408       .  A
C873        O878   1.373   1_556  S
C874        C875   1.408       .  A
C875        C876   1.418       .  A
C875        H879   1.083       .  S
C876        O880   1.371       .  S
O878        H882   0.993       .  S
O880        H881   0.992       .  S
C883        C884   1.410       .  A
C883        C888   1.410       .  A
C884        C885   1.403       .  A
C884        H889   1.083       .  S
C885        C886   1.407       .  A
C885        O890   1.372       .  S
C886        C887   1.408       .  A
C887        C888   1.414       .  A
C887        H891   1.083       .  S
C888        O892   1.371       .  S
O890        H894   0.995       .  S
O892        H893   0.991       .  S
C895        C896   1.411       .  A
C895        C900   1.411       .  A
C896        C897   1.400       .  A
C896        H901   1.083       .  S
C897        C898   1.405       .  A
C897        O902   1.372       .  S
C898        C899   1.405       .  A
C899        C900   1.409       .  A
C899        H903   1.083       .  S
C900        O904   1.369       .  S
O902        H906   0.993       .  S
O904        H905   0.991       .  S
C907        C908   1.401       .  A
C907        C912   1.413       .  A
C908        C909   1.399       .  A
C908        H913   1.084       .  S
C909        C910   1.420       .  A
C909        O914   1.371       .  S
C910        C911   1.408       .  A
C911        C912   1.415       .  A
C911        H915   1.083       .  S
C912        O916   1.371       .  S
O914        H918   0.990       .  S
O916        H917   0.990       .  S
C919        C920   1.401       .  A
C919        C924   1.419       .  A
C920        C921   1.411       .  A
C920        H925   1.083       .  S
C921        C922   1.421       .  A
C921        O926   1.372       .  S
C922        C923   1.403       .  A
C923        C924   1.407       .  A
C923        H927   1.083       .  S
C924        O928   1.372       .  S
O926        H930   1.000       .  S
O928        H929   0.989       .  S
C931        C932   1.399       .  A
C931        C936   1.421   1_455  A
C932        C933   1.410       .  A
C932        H937   1.084       .  S
C933        C934   1.430   1_455  A
C933        O938   1.369       .  S
C934        C935   1.404       .  A
C935        C936   1.408       .  A
C935        H939   1.083       .  S
C936        O940   1.372       .  S
O938        H942   0.997       .  S
O940        H941   0.992       .  S
C943        C944   1.420       .  A
C943        C948   1.418       .  A
C944        C945   1.419       .  A
C944        H949   1.082       .  S
C945        C946   1.405       .  A
C945        O950   1.370       .  S
C946        C947   1.416       .  A
C947        C948   1.417       .  A
C947        H951   1.083       .  S
C948        O952   1.372       .  S
O950        H954   0.993       .  S
O952        H953   0.995       .  S
C955        C956   1.414       .  A
C955        C960   1.412       .  A
C956        C957   1.420       .  A
C956        H961   1.083       .  S
C957        C958   1.412       .  A
C957        O962   1.371       .  S
C958        C959   1.414       .  A
C959        C960   1.414       .  A
C959        H963   1.083       .  S
C960        O964   1.371       .  S
O962        H966   0.996       .  S
O964        H965   0.990       .  S
C967        C968   1.409       .  A
C967        C972   1.410       .  A
C968        C969   1.409       .  A
C968        H973   1.084       .  S
C969        C970   1.410       .  A
C969        O974   1.372       .  S
C970        C971   1.407       .  A
C971        C972   1.411       .  A
C971        H975   1.083       .  S
C972        O976   1.371       .  S
O974        H978   0.992       .  S
O976        H977   0.989       .  S
C979        C980   1.406       .  A
C979        C984   1.420       .  A
C980        C981   1.417       .  A
C980        H985   1.083       .  S
C981        C982   1.418       .  A
C981        O986   1.371       .  S
C982        C983   1.404       .  A
C983        C984   1.405       .  A
C983        H987   1.083       .  S
C984        O988   1.372       .  S
O986        H990   0.990       .  S
O988        H989   0.989       .  S
C991        C992   1.412       .  A
C991        C996   1.407       .  A
C992        C993   1.403       .  A
C992        H997   1.084       .  S
C993        C994   1.404       .  A
C993        O998   1.371       .  S
C994        C995   1.411       .  A
C995        C996   1.407       .  A
C995        H999   1.084       .  S
C996       O1000   1.371       .  S
O998       H1002   0.993       .  S
O1000      H1001   0.989       .  S
C1003      C1004   1.409       .  A
C1003      C1008   1.407       .  A
C1004      C1005   1.397       .  A
C1004      H1009   1.083       .  S
C1005      C1006   1.411       .  A
C1005      O1010   1.368       .  S
C1006      C1007   1.416       .  A
C1007      C1008   1.408       .  A
C1007      H1011   1.081       .  S
C1008      O1012   1.370       .  S
O1010      H1014   0.990       .  S
O1012      H1013   0.993       .  S
C1015      C1016   1.419       .  A
C1015      C1020   1.408       .  A
C1016      C1017   1.406       .  A
C1016      H1021   1.083       .  S
C1017      C1018   1.400       .  A
C1017      O1022   1.372       .  S
C1018      C1019   1.413       .  A
C1019      C1020   1.408       .  A
C1019      H1023   1.081   1_554  S
C1020      O1024   1.371   1_554  S
O1022      H1026   0.991       .  S
O1024      H1025   0.994   1_556  S
C1027      C1028   1.403       .  A
C1027      C1032   1.420       .  A
C1028      C1029   1.404       .  A
C1028      H1033   1.084       .  S
C1029      C1030   1.424       .  A
C1029      O1034   1.373       .  S
C1030      C1031   1.404       .  A
C1031      C1032   1.414       .  A
C1031      H1035   1.083       .  S
C1032      O1036   1.370       .  S
O1034      H1038   0.994       .  S
O1036      H1037   0.997       .  S
C1039      C1040   1.406       .  A
C1039      C1044   1.411       .  A
C1040      C1041   1.402       .  A
C1040      H1045   1.084       .  S
C1041      C1042   1.408       .  A
C1041      O1046   1.372       .  S
C1042      C1043   1.406       .  A
C1043      C1044   1.408       .  A
C1043      H1047   1.084       .  S
C1044      O1048   1.373       .  S
O1046      H1050   0.989       .  S
O1048      H1049   0.996       .  S
C1051      C1052   1.412       .  A
C1051      C1056   1.408       .  A
C1052      C1053   1.401       .  A
C1052      H1057   1.083       .  S
C1053      C1054   1.409       .  A
C1053      O1058   1.370       .  S
C1054      C1055   1.417       .  A
C1055      C1056   1.410       .  A
C1055      H1059   1.082       .  S
C1056      O1060   1.371       .  S
O1058      H1062   0.992       .  S
O1060      H1061   0.995       .  S
C1063      C1064   1.417       .  A
C1063      C1068   1.404       .  A
C1064      C1065   1.399       .  A
C1064      H1069   1.083       .  S
C1065      C1066   1.398       .  A
C1065      O1070   1.372       .  S
C1066      C1067   1.412       .  A
C1067      C1068   1.409       .  A
C1067      H1071   1.082       .  S
C1068      O1072   1.366       .  S
O1070      H1074   0.990       .  S
O1072      H1073   0.997       .  S
C1075      C1076   1.409       .  A
C1075      C1080   1.419       .  A
C1076      C1077   1.413       .  A
C1076      H1081   1.083       .  S
C1077      C1078   1.413       .  A
C1077      O1082   1.374       .  S
C1078      C1079   1.402       .  A
C1079      C1080   1.408       .  A
C1079      H1083   1.084       .  S
C1080      O1084   1.371       .  S
O1082      H1086   0.985       .  S
O1084      H1085   0.989       .  S
C1087      C1088   1.415       .  A
C1087      C1092   1.407       .  A
C1088      C1089   1.414       .  A
C1088      H1093   1.083       .  S
C1089      C1090   1.409       .  A
C1089      O1094   1.372       .  S
C1090      C1091   1.409       .  A
C1091      C1092   1.401       .  A
C1091      H1095   1.084       .  S
C1092      O1096   1.370       .  S
O1094      H1098   0.991       .  S
O1096      H1097   0.994       .  S
C1099      C1100   1.414       .  A
C1099      C1104   1.404       .  A
C1100      C1101   1.406       .  A
C1100      H1105   1.083       .  S
C1101      C1102   1.407       .  A
C1101      O1106   1.369       .  S
C1102      C1103   1.421       .  A
C1103      C1104   1.408       .  A
C1103      H1107   1.081       .  S
C1104      O1108   1.371       .  S
O1106      H1110   0.990       .  S
O1108      H1109   0.995       .  S
C1111      C1112   1.404       .  A
C1111      C1116   1.414       .  A
C1112      C1113   1.407       .  A
C1112      H1117   1.084       .  S
C1113      C1114   1.409       .  A
C1113      O1118   1.368       .  S
C1114      C1115   1.405       .  A
C1115      C1116   1.409       .  A
C1115      H1119   1.084       .  S
C1116      O1120   1.373       .  S
O1118      H1122   0.991       .  S
O1120      H1121   0.992       .  S
C1123      C1124   1.406       .  A
C1123      C1128   1.420       .  A
C1124      C1125   1.415       .  A
C1124      H1129   1.083       .  S
C1125      C1126   1.416       .  A
C1125      O1130   1.373       .  S
C1126      C1127   1.402       .  A
C1127      C1128   1.398       .  A
C1127      H1131   1.083       .  S
C1128      O1132   1.372       .  S
O1130      H1134   0.992       .  S
O1132      H1133   0.989       .  S
C1135      C1136   1.416       .  A
C1135      C1140   1.407       .  A
C1136      C1137   1.405       .  A
C1136      H1141   1.083       .  S
C1137      C1138   1.402       .  A
C1137      O1142   1.371       .  S
C1138      C1139   1.412       .  A
C1139      C1140   1.404       .  A
C1139      H1143   1.084       .  S
C1140      O1144   1.369       .  S
O1142      H1146   0.995       .  S
O1144      H1145   0.996       .  S
C1147      C1148   1.418       .  A
C1147      C1152   1.410       .  A
C1148      C1149   1.407       .  A
C1148      H1153   1.083       .  S
C1149      C1150   1.403       .  A
C1149      O1154   1.370       .  S
C1150      C1151   1.415       .  A
C1151      C1152   1.416       .  A
C1151      H1155   1.084       .  S
C1152      O1156   1.373       .  S
O1154      H1158   0.995       .  S
O1156      H1157   0.986       .  S
C1159      C1160   1.404       .  A
C1159      C1164   1.420       .  A
C1160      C1161   1.404       .  A
C1160      H1165   1.083       .  S
C1161      C1162   1.414       .  A
C1161      O1166   1.371       .  S
C1162      C1163   1.397       .  A
C1163      C1164   1.405       .  A
C1163      H1167   1.084       .  S
C1164      O1168   1.373       .  S
O1166      H1170   0.976       .  S
O1168      H1169   0.994       .  S
C1171      C1172   1.402       .  A
C1171      C1176   1.423       .  A
C1172      C1173   1.404       .  A
C1172      H1177   1.083       .  S
C1173      C1174   1.423       .  A
C1173      O1178   1.372       .  S
C1174      C1175   1.400       .  A
C1175      C1176   1.408       .  A
C1175      H1179   1.083       .  S
C1176      O1180   1.371       .  S
O1178      H1182   0.992       .  S
O1180      H1181   0.994       .  S
C1183      C1184   1.408       .  A
C1183      C1188   1.407       .  A
C1184      C1185   1.402       .  A
C1184      H1189   1.081       .  S
C1185      C1186   1.403       .  A
C1185      O1190   1.372       .  S
C1186      C1187   1.407       .  A
C1187      C1188   1.399       .  A
C1187      H1191   1.079       .  S
C1188      O1192   1.372       .  S
O1190      H1194   0.993       .  S
O1192      H1193   0.993       .  S
C1195      C1196   1.411       .  A
C1195      C1200   1.411       .  A
C1196      C1197   1.406       .  A
C1196      H1201   1.083       .  S
C1197      C1198   1.409       .  A
C1197      O1202   1.371       .  S
C1198      C1199   1.411       .  A
C1199      C1200   1.409       .  A
C1199      H1203   1.083       .  S
C1200      O1204   1.371       .  S
O1202      H1206   0.991       .  S
O1204      H1205   0.994       .  S
C1207      C1208   1.411       .  A
C1207      C1212   1.401       .  A
C1208      C1209   1.410       .  A
C1208      H1213   1.084       .  S
C1209      C1210   1.411       .  A
C1209      O1214   1.371       .  S
C1210      C1211   1.416       .  A
C1211      C1212   1.403       .  A
C1211      H1215   1.083       .  S
C1212      O1216   1.372       .  S
O1214      H1218   0.993       .  S
O1216      H1217   0.991       .  S
C1219      C1220   1.412       .  A
C1219      C1224   1.405       .  A
C1220      C1221   1.399       .  A
C1220      H1225   1.083       .  S
C1221      C1222   1.409       .  A
C1221      O1226   1.375       .  S
C1222      C1223   1.401       .  A
C1223      C1224   1.394       .  A
C1223      H1227   1.084       .  S
C1224      O1228   1.367       .  S
O1226      H1230   0.990       .  S
O1228      H1229   0.991       .  S
C1231      C1232   1.407       .  A
C1231      C1236   1.407       .  A
C1232      C1233   1.412       .  A
C1232      H1237   1.084       .  S
C1233      C1234   1.419       .  A
C1233      O1238   1.373       .  S
C1234      C1235   1.402       .  A
C1235      C1236   1.401       .  A
C1235      H1239   1.083       .  S
C1236      O1240   1.372       .  S
O1238      H1242   0.988       .  S
O1240      H1241   0.993       .  S
C1243      C1244   1.396       .  A
C1243      C1248   1.422       .  A
C1244      C1245   1.407       .  A
C1244      H1249   1.084       .  S
C1245      C1246   1.425       .  A
C1245      O1250   1.370       .  S
C1246      C1247   1.398       .  A
C1247      C1248   1.408       .  A
C1247      H1251   1.084       .  S
C1248      O1252   1.373       .  S
O1250      H1254   0.988       .  S
O1252      H1253   0.994       .  S
C1255      C1256   1.404       .  A
C1255      C1260   1.422       .  A
C1256      C1257   1.403       .  A
C1256      H1261   1.084       .  S
C1257      C1258   1.414       .  A
C1257      O1262   1.372       .  S
C1258      C1259   1.396       .  A
C1259      C1260   1.404       .  A
C1259      H1263   1.084       .  S
C1260      O1264   1.373       .  S
O1262      H1266   0.992       .  S
O1264      H1265   0.996       .  S
C1267      C1268   1.414       .  A
C1267      C1272   1.410       .  A
C1268      C1269   1.401       .  A
C1268      H1273   1.083       .  S
C1269      C1270   1.406       .  A
C1269      O1274   1.371       .  S
C1270      C1271   1.411       .  A
C1271      C1272   1.405       .  A
C1271      H1275   1.083       .  S
C1272      O1276   1.369       .  S
O1274      H1278   1.000       .  S
O1276      H1277   0.989       .  S
