geometry optimzed in LAMMPS
_audit_creation_date              2020-11-30 
_audit_creation_method            'lammps2cif' 
_symmetry_space_group_name_H-M    'P1' 
_symmetry_Int_Tables_number       1 
_symmetry_cell_setting            triclinic 
loop_ 
_symmetry_equiv_pos_as_xyz 
  x,y,z 
_cell_length_a                    33.87915852 
_cell_length_b                    33.936867543290575 
_cell_length_c                    33.84129210888785 
_cell_angle_alpha                 90.62058086617691 
_cell_angle_beta                  89.86934652337177 
_cell_angle_gamma                 91.2241616228499 
loop_ 
_atom_site_label 
_atom_site_type_symbol 
_atom_site_fract_x 
_atom_site_fract_y 
_atom_site_fract_z 
_atom_site_charge 
N1          N  0.90874221  0.80988547  0.09643511    -0.26800
N2          N  0.87523043  0.80675478  0.07656010    -0.34600
C3          C  0.87848741  0.77822839  0.04889753     0.01600
C4          C  0.91588948  0.76298919  0.05132044     0.07600
C5          C  0.93443109  0.78386140  0.08153872    -0.05500
H6          H  0.85598710  0.77045406  0.02738519     0.08200
H7          H  0.96453442  0.78085757  0.09149825     0.09400
Cu8        Cu  0.82842087  0.84459399  0.08492680     0.44200
Cu9        Cu  0.91805528  0.85001887  0.14232093     0.42000
Cu10       Cu  0.84192852  0.91954886  0.16312275     0.43900
N11         N  0.78970314  0.89035119  0.09516833    -0.34200
N12         N  0.79442020  0.91709026  0.12360969    -0.28400
C13         C  0.76618775  0.94409901  0.12012631    -0.04500
C14         C  0.74273347  0.93439211  0.08771620     0.07700
C15         C  0.75859138  0.89993987  0.07272798     0.01500
H16         H  0.76451668  0.97042496  0.13831199     0.09100
H17         H  0.74922643  0.88363372  0.04665385     0.08200
N18         N  0.89383751  0.91689434  0.19639413    -0.35600
N19         N  0.92113713  0.89068821  0.18848389    -0.27800
C20         C  0.95058007  0.89488514  0.21475309    -0.03000
C21         C  0.94181947  0.92526764  0.24077050     0.05600
C22         C  0.90565083  0.93889507  0.22794257     0.03700
H23         H  0.97686978  0.87734870  0.21446288     0.08800
H24         H  0.88892424  0.96257204  0.24091141     0.07600
C25         C  0.15754926  0.47100135  0.93873511    -0.02000
C26         C  0.97894383  0.47824069  0.94648236    -0.02000
C27         C  0.98051806  0.65251569  0.93447994    -0.02000
C28         C  0.15865419  0.64590553  0.92658027    -0.02000
N29         N  0.22613253  0.78841855  0.10819266    -0.26800
N30         N  0.25800045  0.79464554  0.08626655    -0.34600
C31         C  0.25776508  0.76897721  0.05583338     0.01600
C32         C  0.22412939  0.74518031  0.05805626     0.07600
C33         C  0.20473773  0.75831545  0.09187209    -0.05500
H34         H  0.27963443  0.76905914  0.03248202     0.08200
H35         H  0.17599069  0.74853810  0.10229400     0.09400
Cu36       Cu  0.29868874  0.84078405  0.09381544     0.44200
Cu37       Cu  0.21236829  0.82450664  0.15696965     0.42000
Cu38       Cu  0.28444255  0.90587543  0.17454746     0.43900
N39         N  0.33415443  0.89073579  0.10291150    -0.34200
N40         N  0.32940882  0.91455088  0.13360643    -0.28400
C41         C  0.35484804  0.94540358  0.13057615    -0.04500
C42         C  0.37661343  0.94072286  0.09627913     0.07700
C43         C  0.36248095  0.90596835  0.07924467     0.01500
H44         H  0.35581159  0.97049764  0.15057161     0.09100
H45         H  0.37098488  0.89356285  0.05097894     0.08200
N46         N  0.23393657  0.89592390  0.20817521    -0.35600
N47         N  0.20769292  0.86698945  0.20231282    -0.27800
C48         C  0.17766795  0.87160035  0.22815294    -0.03000
C49         C  0.18518555  0.90524474  0.25089682     0.05600
C50         C  0.22125615  0.91959766  0.23742880     0.03700
H51         H  0.15134410  0.85301372  0.22897570     0.08800
H52         H  0.23690572  0.94594513  0.24743796     0.07600
N53         N  0.78463473  0.24399981  0.77066519    -0.26800
N54         N  0.78821933  0.22196247  0.73846825    -0.34600
C55         C  0.76358141  0.19050208  0.74122504     0.01600
C56         C  0.74317877  0.19267806  0.77677835     0.07600
C57         C  0.75730098  0.22717690  0.79464635    -0.05500
H58         H  0.76242625  0.16639408  0.72004261     0.08200
H59         H  0.75068371  0.23747253  0.82424359     0.09400
Cu60       Cu  0.83098959  0.23240703  0.69507629     0.44200
Cu61       Cu  0.82230632  0.29226946  0.78207253     0.42000
Cu62       Cu  0.90095769  0.31446263  0.71069868     0.43900
N63         N  0.87930067  0.24413550  0.65827572    -0.34200
N64         N  0.90446900  0.27399787  0.66363286    -0.28400
C65         C  0.93386599  0.27097014  0.63697076    -0.04500
C66         C  0.92734284  0.23739589  0.61351999     0.07700
C67         C  0.89218882  0.22133587  0.62827424     0.01500
H68         H  0.95922669  0.29081475  0.63633841     0.09100
H69         H  0.87788964  0.19382455  0.61974254     0.08200
N70         N  0.89345175  0.34570240  0.76385762    -0.35600
N71         N  0.86510564  0.33696317  0.78948832    -0.27800
C72         C  0.87021892  0.35936990  0.82212892    -0.03000
C73         C  0.90329279  0.38365374  0.81723306     0.05600
C74         C  0.91720008  0.37420797  0.77971860     0.03700
H75         H  0.85198821  0.35696587  0.84831926     0.08800
H76         H  0.94405285  0.38528851  0.76604623     0.07600
C77         C  0.47861900  0.06286048  0.02479143    -0.02000
C78         C  0.47820140  0.05591770  0.84683912    -0.02000
C79         C  0.65207969  0.05891580  0.84502774    -0.02000
C80         C  0.65255556  0.06149751  0.02140873    -0.02000
N81         N  0.89021023  0.22862099  0.20792400    -0.26800
N82         N  0.91300332  0.26067305  0.20785445    -0.34600
C83         C  0.94172654  0.25674403  0.23481408     0.01600
C84         C  0.93707845  0.22017749  0.25229269     0.07600
C85         C  0.90403131  0.20318058  0.23449105    -0.05500
H86         H  0.96539116  0.27809117  0.23992917     0.08200
H87         H  0.89118382  0.17430761  0.23998218     0.09400
Cu88       Cu  0.90618024  0.30576713  0.16755730     0.44200
Cu89       Cu  0.84291391  0.22055341  0.17007958     0.42000
Cu90       Cu  0.82681973  0.29354646  0.09447947     0.43900
N91         N  0.89744389  0.34379891  0.12079789    -0.34200
N92         N  0.86843779  0.33997184  0.09481749    -0.28400
C93         C  0.87335840  0.36773137  0.06699060    -0.04500
C94         C  0.90732579  0.38975361  0.07546435     0.07700
C95         C  0.92170821  0.37368504  0.10988212     0.01500
H96         H  0.85518731  0.36985709  0.04088124     0.09100
H97         H  0.94870892  0.38198355  0.12510756     0.08200
N98         N  0.79333887  0.24132538  0.09912645    -0.35600
N99         N  0.79939915  0.21571671  0.12752486    -0.27800
C100        C  0.77582030  0.18401605  0.12188057    -0.03000
C101        C  0.75405975  0.18909563  0.08783560     0.05600
C102        C  0.76558415  0.22611037  0.07432295     0.03700
H103        H  0.77586865  0.15830520  0.14049482     0.08800
H104        H  0.75631055  0.23985491  0.04728596     0.07600
N105        N  0.22688282  0.78609118  0.74944360    -0.26800
N106        N  0.25951844  0.78728996  0.77083724    -0.34600
C107        C  0.25683948  0.75914408  0.79863086     0.01600
C108        C  0.22056406  0.73960240  0.79498293     0.07600
C109        C  0.20247845  0.75759946  0.76338264    -0.05500
H110        H  0.27843477  0.75510351  0.82165453     0.08200
H111        H  0.17304813  0.75150290  0.75224616     0.09400
Cu112      Cu  0.30296097  0.83175897  0.76523091     0.44200
Cu113      Cu  0.21485340  0.82632529  0.70515628     0.42000
Cu114      Cu  0.27864606  0.91228749  0.69857827     0.43900
N115        N  0.33696978  0.88367306  0.75930074    -0.34200
N116        N  0.32775064  0.91254777  0.73521612    -0.28400
C117        C  0.35292633  0.94318107  0.74112928    -0.04500
C118        C  0.37952352  0.93328074  0.77002007     0.07700
C119        C  0.36836353  0.89548965  0.78123026     0.01500
H120        H  0.35047560  0.97158154  0.72722072     0.09100
H121        H  0.38046018  0.87890106  0.80531071     0.08200
N122        N  0.22766971  0.90479120  0.66511183    -0.35600
N123        N  0.20497373  0.87269318  0.66677557    -0.27800
C124        C  0.17426014  0.87665485  0.64211902    -0.03000
C125        C  0.17738457  0.91319987  0.62427253     0.05600
C126        C  0.21177213  0.93019566  0.63961704     0.03700
H127        H  0.15054473  0.85506888  0.63860373     0.08800
H128        H  0.22438399  0.95889644  0.63288467     0.07600
C129        C  0.06316487  0.15808750  0.35154548    -0.02000
C130        C  0.06503790  0.98097114  0.35147342    -0.02000
C131        C  0.05069858  0.97672774  0.52639499    -0.02000
C132        C  0.05095714  0.15449728  0.52496803    -0.02000
N133        N  0.23329175  0.21088247  0.66949204    -0.26800
N134        N  0.20589445  0.23482839  0.68290981    -0.34600
C135        C  0.17318382  0.23007861  0.66093645     0.01600
C136        C  0.18012936  0.20215965  0.63187223     0.07600
C137        C  0.21864314  0.19056404  0.63803538    -0.05500
H138        H  0.14596838  0.24544057  0.66615346     0.08200
H139        H  0.23409484  0.16772420  0.62216513     0.09400
Cu140      Cu  0.21260674  0.27306505  0.73079306     0.44200
Cu141      Cu  0.28731657  0.20475135  0.69829267     0.42000
Cu142      Cu  0.30309490  0.27356052  0.78272282     0.43900
N143        N  0.22526081  0.31306432  0.77604049    -0.34200
N144        N  0.25950933  0.31435028  0.79464146    -0.28400
C145        C  0.25875754  0.34304042  0.82249869    -0.04500
C146        C  0.22221040  0.36054493  0.82121613     0.07700
C147        C  0.20163004  0.34051970  0.79172762     0.01500
H148        H  0.28225392  0.34937627  0.84336719     0.09100
H149        H  0.17136495  0.34494673  0.78297880     0.08200
N150        N  0.33889576  0.22618199  0.76905134    -0.35600
N151        N  0.33376576  0.20167555  0.73869339    -0.27800
C152        C  0.36019327  0.17268344  0.74127538    -0.03000
C153        C  0.38290555  0.17904600  0.77492257     0.05600
C154        C  0.36841600  0.21325998  0.79167352     0.03700
H155        H  0.36080510  0.14729315  0.72170310     0.08800
H156        H  0.37741540  0.22686970  0.81936638     0.07600
N157        N  0.24456085  0.23107422  0.21439655    -0.26800
N158        N  0.22064533  0.25996322  0.20592830    -0.34600
C159        C  0.18945466  0.25875350  0.23037679     0.01600
C160        C  0.19345564  0.22763991  0.25632551     0.07600
C161        C  0.22904290  0.21073590  0.24502379    -0.05500
H162        H  0.16491289  0.27824677  0.22754653     0.08200
H163        H  0.24209782  0.18472648  0.25714811     0.09400
Cu164      Cu  0.22872217  0.29844371  0.15958092     0.44200
Cu165      Cu  0.29473121  0.21981495  0.17999898     0.42000
Cu166      Cu  0.30939665  0.28614942  0.09376518     0.43900
N167        N  0.23771334  0.33388490  0.11102139    -0.34200
N168        N  0.26750275  0.32977080  0.08622758    -0.28400
C169        C  0.26342755  0.35552901  0.05651759    -0.04500
C170        C  0.22915762  0.37666133  0.06284337     0.07700
C171        C  0.21394303  0.36211215  0.09797207     0.01500
H172        H  0.28287337  0.35735032  0.03117643     0.09100
H173        H  0.18714300  0.37067238  0.11283928     0.08200
N174        N  0.34412822  0.23769246  0.10651800    -0.35600
N175        N  0.33923221  0.21412372  0.13718899    -0.27800
C176        C  0.36483875  0.18435499  0.13393255    -0.03000
C177        C  0.38678722  0.18911526  0.09952442     0.05600
C178        C  0.37274271  0.22335837  0.08311620     0.03700
H179        H  0.36543776  0.15960540  0.15377464     0.08800
H180        H  0.38148740  0.23611427  0.05519539     0.07600
N181        N  0.90310921  0.85677172  0.66687361    -0.26800
N182        N  0.88051736  0.88794217  0.66463508    -0.34600
C183        C  0.89515709  0.91215973  0.63668609     0.01600
C184        C  0.92815587  0.89511382  0.62011275     0.07600
C185        C  0.93250970  0.86018584  0.64019807    -0.05500
H186        H  0.88411147  0.94114659  0.63060143     0.08200
H187        H  0.95694585  0.84029039  0.63774751     0.09400
Cu188      Cu  0.83374163  0.89779952  0.70319468     0.44200
Cu189      Cu  0.89660687  0.81474813  0.71078458     0.42000
Cu190      Cu  0.81914915  0.82873491  0.78415344     0.43900
N191        N  0.78995310  0.90279975  0.74607111    -0.34200
N192        N  0.78476878  0.87831975  0.77587422    -0.28400
C193        C  0.75571684  0.89188636  0.79935233    -0.04500
C194        C  0.74174407  0.92648415  0.78342351     0.07700
C195        C  0.76420940  0.93221830  0.74960239     0.01500
H196        H  0.74594718  0.87773120  0.82622582     0.09100
H197        H  0.76320378  0.95704051  0.72986212     0.08200
N198        N  0.86084167  0.78439532  0.78684229    -0.35600
N199        N  0.88923095  0.77973938  0.76041996    -0.27800
C200        C  0.91374992  0.75181816  0.77299315    -0.03000
C201        C  0.90015271  0.73786745  0.80901720     0.05600
C202        C  0.86644450  0.75926012  0.81672341     0.03700
H203        H  0.94049351  0.74354767  0.75778362     0.08800
H204        H  0.84887992  0.75874377  0.84344632     0.07600
C205        C  0.12669987  0.17057807  0.53757166    -0.20800
C206        C  0.08769500  0.16408415  0.55160940    -0.08800
C207        C  0.08270608  0.16308940  0.59332051     0.30000
C208        C  0.11297605  0.17518859  0.61874065    -0.20800
C209        C  0.15026388  0.18566691  0.60411772    -0.08900
C210        C  0.15751723  0.18167184  0.56344442     0.30000
F211        F  0.19394127  0.18989964  0.54851974    -0.19400
H212        H  0.13406443  0.16702181  0.50677304     0.18400
H213        H  0.10718598  0.17637272  0.65023121     0.18400
F214        F  0.04777487  0.15171013  0.60983323    -0.19400
C215        C  0.01336058  0.96144345  0.59014644    -0.20800
C216        C  0.01621574  0.95518302  0.54874482    -0.08800
C217        C  0.99060196  0.92567491  0.53196639     0.30000
C218        C  0.96183994  0.90646818  0.55522591    -0.20800
C219        C  0.95834625  0.91509984  0.59558935    -0.08900
C220        C  0.98466946  0.94230154  0.61299771     0.30000
F221        F  0.98297120  0.94996171  0.65241240    -0.19400
H222        H  0.03340003  0.98205407  0.60489347     0.18400
H223        H  0.94255118  0.88429740  0.54175272     0.18400
F224        F  0.99431812  0.91296520  0.49408467    -0.19400
C225        C  0.07835482  0.04500099  0.50975708    -0.20800
C226        C  0.04840347  0.02295925  0.52894718    -0.08800
C227        C  0.01805637  0.04502508  0.54739644     0.30000
C228        C  0.02002925  0.08650355  0.54884467    -0.20800
C229        C  0.04860661  0.10825682  0.52726895    -0.08900
C230        C  0.07800938  0.08602077  0.50786779     0.30000
F231        F  0.10706648  0.10384456  0.48657980    -0.19400
H232        H  0.10240943  0.03002726  0.49532091     0.18400
H233        H  0.99879981  0.10085715  0.56746287     0.18400
F234        F  0.98539755  0.02774641  0.56323002    -0.19400
C235        C  0.02408175  0.97903842  0.41512551    -0.20800
C236        C  0.05948492  0.96872010  0.39570330    -0.08800
C237        C  0.09079747  0.95620542  0.42015899     0.30000
C238        C  0.08666453  0.95516061  0.46143797    -0.20800
C239        C  0.05194941  0.96762974  0.48084722    -0.08900
C240        C  0.02054497  0.97921069  0.45642199     0.30000
F241        F  0.98690668  0.99320867  0.47271524    -0.19400
H242        H  0.99972629  0.99035960  0.39839432     0.18400
H243        H  0.11284986  0.94840702  0.47792286     0.18400
F244        F  0.12769170  0.95110877  0.40562533    -0.19400
C245        C  0.09999905  0.21823183  0.31893017    -0.20800
C246        C  0.10107006  0.17923319  0.33335200    -0.08800
C247        C  0.13780632  0.15998402  0.32785132     0.30000
C248        C  0.16781530  0.17623723  0.30393265    -0.20800
C249        C  0.16367335  0.21290867  0.28584267    -0.08900
C250        C  0.13011422  0.23461621  0.29569197     0.30000
F251        F  0.12559514  0.27198702  0.28296485    -0.19400
H252        H  0.07588397  0.23723123  0.32422236     0.18400
H253        H  0.19416316  0.15937717  0.29915385     0.18400
F254        F  0.14584774  0.12548563  0.34559504    -0.19400
C255        C  0.07975117  0.09107955  0.38332982    -0.20800
C256        C  0.06914556  0.11208192  0.34921234    -0.08800
C257        C  0.06992933  0.08996569  0.31353849     0.30000
C258        C  0.06823112  0.04843527  0.31427346    -0.20800
C259        C  0.07058794  0.02730317  0.35027545    -0.08900
C260        C  0.08118695  0.05033347  0.38391279     0.30000
F261        F  0.09533923  0.03474245  0.41745429    -0.19400
H262        H  0.08861017  0.10614538  0.41025077     0.18400
H263        H  0.06489422  0.03252278  0.28652754     0.18400
F264        F  0.07071950  0.10827956  0.27805442    -0.19400
C265        C  0.08151254  0.19190703  0.41948518    -0.20800
C266        C  0.05589644  0.16828479  0.39591252    -0.08800
C267        C  0.02370781  0.14938617  0.41516153     0.30000
C268        C  0.02272567  0.14676994  0.45606464    -0.20800
C269        C  0.05184096  0.16504987  0.48014807    -0.08900
C270        C  0.07801821  0.19206072  0.46111934     0.30000
F271        F  0.09888977  0.21975070  0.48185495    -0.19400
H272        H  0.10442851  0.20994168  0.40601254     0.18400
H273        H  0.00008653  0.12787502  0.46873806     0.18400
F274        F  0.99622549  0.12818546  0.39430690    -0.19400
C275        C  0.12579417  0.90579811  0.57190611    -0.20800
C276        C  0.14854076  0.93055223  0.59671879    -0.08800
C277        C  0.14162132  0.97123400  0.59651911     0.30000
C278        C  0.11193914  0.98649703  0.57272561    -0.20800
C279        C  0.08825178  0.96177383  0.54795333    -0.08900
C280        C  0.09615002  0.92089205  0.54808712     0.30000
F281        F  0.07412025  0.89509222  0.52602014    -0.19400
H282        H  0.13048565  0.87433260  0.57138553     0.18400
H283        H  0.10645739  0.01758276  0.57595791     0.18400
F284        F  0.16152527  0.99614609  0.62140573    -0.19400
C285        C  0.98157571  0.22572812  0.31058859    -0.20800
C286        C  0.96405243  0.20230988  0.28103959    -0.08800
C287        C  0.97288500  0.16216433  0.27934346     0.30000
C288        C  0.00170941  0.14695952  0.30415786    -0.20800
C289        C  0.02478598  0.17173948  0.32948502    -0.08900
C290        C  0.00993470  0.21032620  0.33568372     0.30000
F291        F  0.02306530  0.23388455  0.36581376    -0.19400
H292        H  0.97313748  0.25614306  0.31444613     0.18400
H293        H  0.00481271  0.11560097  0.30286444     0.18400
F294        F  0.95496361  0.13769857  0.25259908    -0.19400
C295        C  0.71583311  0.08893184  0.05560539    -0.20800
C296        C  0.67880046  0.09640000  0.03803407    -0.08800
C297        C  0.67038472  0.13661749  0.03128524     0.30000
C298        C  0.69486934  0.16707630  0.04696688    -0.20800
C299        C  0.72917767  0.15825365  0.06809468    -0.08900
C300        C  0.74007209  0.11883902  0.07063803     0.30000
F301        F  0.77527184  0.10886092  0.08636041    -0.19400
H302        H  0.72777900  0.05977399  0.05699921     0.18400
H303        H  0.68672891  0.19746718  0.04305482     0.18400
F304        F  0.63835956  0.14664890  0.00990758    -0.19400
C305        C  0.68487015  0.99038650  0.85594586    -0.20800
C306        C  0.66940993  0.01900489  0.83048514    -0.08800
C307        C  0.67021579  0.01038618  0.78940360     0.30000
C308        C  0.69224570  0.97913579  0.77458395    -0.20800
C309        C  0.71262759  0.95441189  0.80008491    -0.08900
C310        C  0.70689708  0.95901060  0.84105308     0.30000
F311        F  0.72439827  0.93478319  0.86703566    -0.19400
H312        H  0.68097974  0.99215783  0.88753251     0.18400
H313        H  0.69452833  0.97521183  0.74286895     0.18400
F314        F  0.65265567  0.03447674  0.76326612    -0.19400
C315        C  0.68967516  0.06165121  0.91194667    -0.20800
C316        C  0.65401810  0.06542623  0.89085910    -0.08800
C317        C  0.62134366  0.07885018  0.91315637     0.30000
C318        C  0.62163680  0.07817472  0.95405014    -0.20800
C319        C  0.65466935  0.06558372  0.97545664    -0.08900
C320        C  0.69011907  0.06162921  0.95358266     0.30000
F321        F  0.72493735  0.05615501  0.97223187    -0.19400
H322        H  0.71693315  0.05653770  0.89612219     0.18400
H323        H  0.59536599  0.08857720  0.96862237     0.18400
F324        F  0.58916667  0.09461509  0.89624294    -0.19400
C325        C  0.45677435  0.09750391  0.78822415    -0.20800
C326        C  0.45770905  0.09300305  0.82979984    -0.08800
C327        C  0.43391915  0.11903732  0.85253457     0.30000
C328        C  0.41190132  0.14807382  0.83435690    -0.20800
C329        C  0.41080578  0.15143030  0.79319924    -0.08900
C330        C  0.43401503  0.12620847  0.77022732     0.30000
F331        F  0.43443981  0.12891169  0.73025686    -0.19400
H332        H  0.47297391  0.07755802  0.76933307     0.18400
H333        H  0.39329934  0.16629079  0.85274118     0.18400
F334        F  0.42752139  0.11454930  0.89175972    -0.19400
C335        C  0.46959672  0.99447581  0.79996349    -0.20800
C336        C  0.45377599  0.02078081  0.82846906    -0.08800
C337        C  0.41279268  0.01685330  0.83680271     0.30000
C338        C  0.38954901  0.98734043  0.81881409    -0.20800
C339        C  0.40583534  0.96130490  0.79134091    -0.08900
C340        C  0.44600282  0.96500708  0.78189281     0.30000
F341        F  0.46209202  0.94111757  0.75403719    -0.19400
H342        H  0.49989934  0.99714921  0.79022030     0.18400
H343        H  0.35834207  0.98530918  0.82576818     0.18400
F344        F  0.39501543  0.04160335  0.86269692    -0.19400
C345        C  0.54437441  0.08336700  0.81508577    -0.20800
C346        C  0.52297624  0.05371354  0.83581716    -0.08800
C347        C  0.54490375  0.02194474  0.85017252     0.30000
C348        C  0.58594197  0.02293967  0.84927671    -0.20800
C349        C  0.60760828  0.05492996  0.83301722    -0.08900
C350        C  0.58583471  0.08272973  0.81166096     0.30000
F351        F  0.60375493  0.10992085  0.78833446    -0.19400
H352        H  0.52987461  0.10819620  0.80243310     0.18400
H353        H  0.60100943  0.99979443  0.86456236     0.18400
F354        F  0.52675043  0.99085144  0.86800338    -0.19400
C355        C  0.41471962  0.15674021  0.03923894    -0.20800
C356        C  0.41372226  0.16033229  0.08053601    -0.08800
C357        C  0.43631591  0.13448993  0.10285178     0.30000
C358        C  0.45875162  0.10553991  0.08406500    -0.20800
C359        C  0.45908659  0.10056338  0.04239988    -0.08900
C360        C  0.43584258  0.12691293  0.02034934     0.30000
F361        F  0.42986106  0.12256263  0.98100489    -0.19400
H362        H  0.39675405  0.17549831  0.02127017     0.18400
H363        H  0.47495201  0.08560900  0.10244751     0.18400
F364        F  0.43645304  0.13671619  0.14291507    -0.19400
C365        C  0.46277415  0.02704442  0.95766948    -0.20800
C366        C  0.47757830  0.06061679  0.97838442    -0.08800
C367        C  0.49687226  0.08985164  0.95532752     0.30000
C368        C  0.49707912  0.08738929  0.91386160    -0.20800
C369        C  0.47809432  0.05586745  0.89318962    -0.08900
C370        C  0.46324581  0.02435174  0.91644727     0.30000
F371        F  0.45182540  0.98917822  0.90037586    -0.19400
H372        H  0.45250793  0.00107898  0.97303903     0.18400
H373        H  0.51106553  0.11113203  0.89749426     0.18400
F374        F  0.51466948  0.12163030  0.97295601    -0.19400
C375        C  0.58527043  0.02773260  0.01949493    -0.20800
C376        C  0.60806835  0.06010759  0.03394171    -0.08800
C377        C  0.58756093  0.08978988  0.05469108     0.30000
C378        C  0.54601192  0.09080769  0.05312868    -0.20800
C379        C  0.52347085  0.06028343  0.03444327    -0.08900
C380        C  0.54428571  0.02737835  0.02029553     0.30000
F381        F  0.52496936  0.99549590  0.00457421    -0.19400
H382        H  0.59939247  0.00335842  0.00463962     0.18400
H383        H  0.53217158  0.11646251  0.06555800     0.18400
F384        F  0.60676891  0.11814870  0.07605823    -0.19400
C385        C  0.99289384  0.23687513  0.57833962    -0.20800
C386        C  0.95542656  0.21944685  0.58431334    -0.08800
C387        C  0.94638668  0.18440482  0.56299610     0.30000
C388        C  0.97579829  0.16489398  0.54143497    -0.20800
C389        C  0.01545358  0.17866182  0.54174188    -0.08900
C390        C  0.02190078  0.21764812  0.55641154     0.30000
F391        F  0.05703614  0.23688081  0.55121841    -0.19400
H392        H  0.00055940  0.26520376  0.59139401     0.18400
H393        H  0.96721993  0.13831399  0.52559368     0.18400
F394        F  0.90933474  0.16854939  0.56281030    -0.19400
C395        C  0.73395644  0.12180230  0.79162547    -0.20800
C396        C  0.71995725  0.16003163  0.79523484    -0.08800
C397        C  0.68555062  0.16607417  0.81760092     0.30000
C398        C  0.66436183  0.13373346  0.83356728    -0.20800
C399        C  0.67645166  0.09440670  0.82723061    -0.08900
C400        C  0.71400844  0.08993026  0.80868990     0.30000
F401        F  0.73406426  0.05581812  0.80939122    -0.19400
H402        H  0.76189951  0.11667688  0.77701016     0.18400
H403        H  0.63789710  0.13942753  0.85046666     0.18400
F404        F  0.67193351  0.20301531  0.82332991    -0.19400
C405        C  0.13516186  0.90184427  0.30559032    -0.20800
C406        C  0.15840195  0.92441863  0.27977517    -0.08800
C407        C  0.15629903  0.96554494  0.28234180     0.30000
C408        C  0.12946185  0.98335548  0.30793361    -0.20800
C409        C  0.10175795  0.96111531  0.33065332    -0.08900
C410        C  0.10848206  0.91972656  0.33164905     0.30000
F411        F  0.09244512  0.89647841  0.36007038    -0.19400
H412        H  0.13842503  0.87017915  0.30637727     0.18400
H413        H  0.13115357  0.01498774  0.30878798     0.18400
F414        F  0.17892375  0.98898255  0.25875585    -0.19400
C415        C  0.41347023  0.02442360  0.03277769    -0.20800
C416        C  0.45368896  0.02866743  0.04368421    -0.08800
C417        C  0.46716233  0.00424704  0.07459794     0.30000
C418        C  0.44202821  0.97550558  0.09125059    -0.20800
C419        C  0.40314221  0.97034810  0.07804982    -0.08900
C420        C  0.38899160  0.99500590  0.04869794     0.30000
F421        F  0.35111826  0.99115601  0.03599177    -0.19400
H422        H  0.40114583  0.04375014  0.01096440     0.18400
H423        H  0.45285357  0.95745359  0.11493318     0.18400
F424        F  0.50347088  0.00922004  0.09089713    -0.19400
C425        C  0.17200099  0.66074085  0.00158247    -0.20800
C426        C  0.17940731  0.67050668  0.96131138    -0.08800
C427        C  0.20208903  0.70608998  0.95533336     0.30000
C428        C  0.21688235  0.72845608  0.98694529    -0.20800
C429        C  0.20914317  0.71834180  0.02607842    -0.08900
C430        C  0.18648650  0.68408580  0.03329070     0.30000
F431        F  0.17802820  0.67323883  0.07089386    -0.19400
H432        H  0.15259683  0.63600648  0.00858052     0.18400
H433        H  0.23312904  0.75545192  0.98038624     0.18400
F434        F  0.20835874  0.72252667  0.91958805    -0.19400
C435        C  0.22570782  0.68205724  0.84066075    -0.20800
C436        C  0.20263527  0.71102766  0.82327940    -0.08800
C437        C  0.16327212  0.71459309  0.83568494     0.30000
C438        C  0.14831008  0.69173909  0.86667367    -0.20800
C439        C  0.17185113  0.66392876  0.88623545    -0.08900
C440        C  0.21064062  0.65848850  0.87132882     0.30000
F441        F  0.23529763  0.63288290  0.88866010    -0.19400
H442        H  0.25608179  0.67860859  0.83141845     0.18400
H443        H  0.11894883  0.69844078  0.87688917     0.18400
F444        F  0.14005588  0.74271961  0.82039684    -0.19400
C445        C  0.96220643  0.71084192  0.83724590    -0.20800
C446        C  0.92082284  0.71154926  0.83669683    -0.08800
C447        C  0.89977560  0.68966262  0.86498440     0.30000
C448        C  0.91973910  0.66932136  0.89422964    -0.20800
C449        C  0.96147493  0.66954285  0.89644355    -0.08900
C450        C  0.98245761  0.69100027  0.86686638     0.30000
F451        F  0.02218647  0.69636908  0.86769531    -0.19400
H452        H  0.97921730  0.72798925  0.81616333     0.18400
H453        H  0.90227309  0.65418102  0.91644142     0.18400
F454        F  0.85972129  0.68834340  0.86492194    -0.19400
C455        C  0.05085417  0.67287192  0.96083185    -0.20800
C456        C  0.02667542  0.65283363  0.93295910    -0.08800
C457        C  0.04618678  0.62996454  0.90423706     0.30000
C458        C  0.08729240  0.62794773  0.90330254    -0.20800
C459        C  0.11210472  0.64850592  0.93055194    -0.08900
C460        C  0.09207852  0.67319501  0.95813201     0.30000
F461        F  0.11082482  0.70073657  0.98090166    -0.19400
H462        H  0.03860353  0.68934706  0.98513809     0.18400
H463        H  0.09889562  0.61149361  0.87908935     0.18400
F464        F  0.02537523  0.61007065  0.87586754    -0.19400
C465        C  0.90474384  0.44378358  0.02606584    -0.20800
C466        C  0.92728876  0.41852053  0.04895473    -0.08800
C467        C  0.96832931  0.41794600  0.04292456     0.30000
C468        C  0.98571740  0.43905637  0.01191245    -0.20800
C469        C  0.96284506  0.46234391  0.98654421    -0.08900
C470        C  0.92217068  0.46598320  0.99581104     0.30000
F471        F  0.89826057  0.48759301  0.97277764    -0.19400
H472        H  0.87311435  0.44503515  0.03046802     0.18400
H473        H  0.01656233  0.43398655  0.00631327     0.18400
F474        F  0.99135005  0.39395745  0.06438547    -0.19400
C475        C  0.96247437  0.46476066  0.87189049    -0.20800
C476        C  0.95843801  0.45338209  0.91206259    -0.08800
C477        C  0.93890242  0.41617966  0.91838865     0.30000
C478        C  0.92063359  0.39527330  0.88760997    -0.20800
C479        C  0.92279462  0.40819942  0.84865413    -0.08900
C480        C  0.94461029  0.44294169  0.84080301     0.30000
F481        F  0.94829814  0.45617596  0.80326448    -0.19400
H482        H  0.98000395  0.49072911  0.86453891     0.18400
H483        H  0.90609209  0.36739661  0.89432781     0.18400
F484        F  0.93944404  0.39723065  0.95339459    -0.19400
C485        C  0.98081895  0.54815808  0.97799568    -0.20800
C486        C  0.96887461  0.52360394  0.94596889    -0.08800
C487        C  0.94726556  0.54302411  0.91625659     0.30000
C488        C  0.94976535  0.58418813  0.91251803    -0.20800
C489        C  0.96975715  0.60812621  0.94080824    -0.08900
C490        C  0.98338517  0.58908328  0.97483925     0.30000
F491        F  0.99979700  0.61011976  0.00520119    -0.19400
H492        H  0.98790256  0.53598266  0.00624168     0.18400
H493        H  0.93642993  0.59653455  0.88667825     0.18400
F494        F  0.92053512  0.52379236  0.89300858    -0.19400
C495        C  0.23420518  0.42641247  0.00880947    -0.20800
C496        C  0.21068462  0.40503232  0.03552485    -0.08800
C497        C  0.16945995  0.40922199  0.03395798     0.30000
C498        C  0.15231739  0.43222271  0.00481766    -0.20800
C499        C  0.17558127  0.45259444  0.97652550    -0.08900
C500        C  0.21717633  0.44990683  0.97997966     0.30000
F501        F  0.24153959  0.46884672  0.95420619    -0.19400
H502        H  0.26604115  0.42431444  0.00962699     0.18400
H503        H  0.12050575  0.43133496  0.00329047     0.18400
F504        F  0.14511211  0.38875429  0.05854050    -0.19400
C505        C  0.17795447  0.37639496  0.87728042    -0.20800
C506        C  0.20594193  0.38919365  0.84969061    -0.08800
C507        C  0.21816895  0.42891015  0.84989382     0.30000
C508        C  0.20206302  0.45561717  0.87717637    -0.20800
C509        C  0.17316128  0.44336672  0.90507176    -0.08900
C510        C  0.16243329  0.40257553  0.90505168     0.30000
F511        F  0.13669006  0.38774014  0.93214496    -0.19400
H512        H  0.16864818  0.34565554  0.87786324     0.18400
H513        H  0.21381244  0.48543682  0.87714750     0.18400
F514        F  0.24579204  0.44188036  0.82370995    -0.19400
C515        C  0.05060413  0.49315842  0.97190772    -0.20800
C516        C  0.02565155  0.47448913  0.94337802    -0.07600
C517        C  0.04581712  0.45234094  0.91373262     0.30000
C518        C  0.08715503  0.45299146  0.91096380    -0.20800
C519        C  0.11132452  0.47142051  0.93990076    -0.08900
C520        C  0.09175982  0.49228119  0.97005037     0.30000
F521        F  0.11244840  0.51078000  0.99938642    -0.19400
H522        H  0.03922265  0.50634588  0.99810352     0.18400
H523        H  0.09970847  0.43794467  0.88584314     0.18400
F524        F  0.02710371  0.42728765  0.88828549    -0.19400
C525        C  0.15903122  0.53416706  0.89801259    -0.20800
C526        C  0.16949869  0.51549339  0.93334253    -0.08800
C527        C  0.18499791  0.54037777  0.96378960     0.30000
C528        C  0.18615278  0.58158794  0.95976822    -0.20800
C529        C  0.16953941  0.60051704  0.92680655    -0.08900
C530        C  0.16140025  0.57519154  0.89391767     0.30000
F531        F  0.15642821  0.58954575  0.85702396    -0.19400
H532        H  0.14819611  0.51670059  0.87319459     0.18400
H533        H  0.19984401  0.59776640  0.98363352     0.18400
F534        F  0.19606129  0.52611522  0.99925058    -0.19400
C535        C  0.96888914  0.97925454  0.28581787    -0.20800
C536        C  0.96706064  0.93949449  0.27414967    -0.08800
C537        C  0.99028942  0.91295854  0.29466690     0.30000
C538        C  0.01822349  0.92655359  0.32206427    -0.20800
C539        C  0.02646673  0.96712301  0.32833384    -0.08900
C540        C  0.99714620  0.99279749  0.31357426     0.30000
F541        F  0.99327078  0.03006257  0.32770155    -0.19400
H542        H  0.94877617  0.00002099  0.27317174     0.18400
H543        H  0.03271389  0.90442842  0.33830394     0.18400
F544        F  0.98564994  0.87348626  0.28884999    -0.19400
C545        C  0.69142296  0.98562173  0.09464569    -0.20800
C546        C  0.71226596  0.95979012  0.07010656    -0.08800
C547        C  0.70630403  0.96163075  0.02897920     0.30000
C548        C  0.68398525  0.99184198  0.01286815    -0.20800
C549        C  0.66841528  0.02177486  0.03724990    -0.08900
C550        C  0.66908707  0.01562768  0.07864056     0.30000
F551        F  0.65173921  0.04143794  0.10385702    -0.19400
H552        H  0.69395747  0.98384422  0.12646967     0.18400
H553        H  0.68059996  0.99225935  0.98118514     0.18400
F554        F  0.72426283  0.93619758  0.00392121    -0.19400
C555        C  0.92010135  0.69515077  0.02336716    -0.20800
C556        C  0.93351383  0.73438048  0.02388128    -0.08800
C557        C  0.96133025  0.74685515  0.99587833     0.30000
C558        C  0.97536123  0.72032152  0.96761790    -0.20800
C559        C  0.96431961  0.67980324  0.96799482    -0.08900
C560        C  0.93488427  0.66808245  0.99583744     0.30000
F561        F  0.91774385  0.63163507  0.99520028    -0.19400
H562        H  0.89739484  0.68559602  0.04395094     0.18400
H563        H  0.99565631  0.73137714  0.94536806     0.18400
F564        F  0.97379217  0.78511902  0.99489910    -0.19400
loop_ 
_geom_bond_atom_site_label_1 
_geom_bond_atom_site_label_2 
_geom_bond_distance 
_geom_bond_site_symmetry_2 
_ccdc_geom_bond_type 
N1            N2   1.323       .  A
N1            C5   1.346       .  A
N1           Cu9   2.075       .  S
N2            C3   1.345       .  A
N2           Cu8   2.079       .  S
C3            C4   1.382       .  A
C3            H6   1.082       .  S
C4            C5   1.382       .  A
C4          C556   1.471       .  S
C5            H7   1.082       .  S
Cu8          N11   2.080       .  S
Cu9          N19   2.075       .  S
Cu10         N12   2.095       .  S
Cu10         N18   2.094       .  S
N11          N12   1.323       .  A
N11          C15   1.348       .  A
N12          C13   1.345       .  A
C13          C14   1.388       .  A
C13          H16   1.082       .  S
C14          C15   1.388       .  A
C14         C546   1.488       .  S
C15          H17   1.081       .  S
N18          N19   1.322       .  A
N18          C22   1.353       .  A
N19          C20   1.342       .  A
C20          C21   1.385       .  A
C20          H23   1.082       .  S
C21          C22   1.391       .  A
C21         C536   1.488       .  S
C22          H24   1.082       .  S
C25         C499   1.561       .  S
C25         C509   1.566       .  S
C25         C519   1.567       .  S
C25         C526   1.567       .  S
C26         C469   1.558       .  S
C26         C476   1.584       .  S
C26         C486   1.584       .  S
C26         C516   1.593   1_655  S
C27         C449   1.563       .  S
C27         C456   1.564   1_655  S
C27         C489   1.559       .  S
C27         C559   1.562       .  S
C28         C426   1.591       .  S
C28         C439   1.563       .  S
C28         C459   1.587       .  S
C28         C529   1.592       .  S
N29          N30   1.323       .  A
N29          C33   1.354       .  A
N29         Cu37   2.102       .  S
N30          C31   1.342       .  A
N30         Cu36   2.078       .  S
C31          C32   1.385       .  A
C31          H34   1.082       .  S
C32          C33   1.392       .  A
C32         C429   1.490       .  S
C33          H35   1.082       .  S
Cu36         N39   2.077       .  S
Cu37         N47   2.102       .  S
Cu38         N40   2.075       .  S
Cu38         N46   2.076       .  S
N39          N40   1.321       .  A
N39          C43   1.347       .  A
N40          C41   1.346       .  A
C41          C42   1.383       .  A
C41          H44   1.082       .  S
C42          C43   1.384       .  A
C42         C419   1.474       .  S
C43          H45   1.082       .  S
N46          N47   1.324       .  A
N46          C50   1.344       .  A
N47          C48   1.350       .  A
C48          C49   1.389       .  A
C48          H51   1.082       .  S
C49          C50   1.384       .  A
C49         C406   1.486       .  S
C50          H52   1.081       .  S
N53          N54   1.322       .  A
N53          C57   1.351       .  A
N53         Cu61   2.088       .  S
N54          C55   1.345       .  A
N54         Cu60   2.088       .  S
C55          C56   1.388       .  A
C55          H58   1.082       .  S
C56          C57   1.388       .  A
C56         C396   1.487       .  S
C57          H59   1.082       .  S
Cu60         N63   2.089       .  S
Cu61         N71   2.089       .  S
Cu62         N64   2.097       .  S
Cu62         N70   2.096       .  S
N63          N64   1.322       .  A
N63          C67   1.347       .  A
N64          C65   1.347       .  A
C65          C66   1.395       .  A
C65          H68   1.081       .  S
C66          C67   1.393       .  A
C66         C386   1.504       .  S
C67          H69   1.079       .  S
N70          N71   1.324       .  A
N70          C74   1.352       .  A
N71          C72   1.344       .  A
C72          C73   1.387       .  A
C72          H75   1.082       .  S
C73          C74   1.390       .  A
C73         C479   1.491       .  S
C74          H76   1.082       .  S
C77         C359   1.565       .  S
C77         C366   1.572   1_554  S
C77         C379   1.559       .  S
C77         C416   1.562       .  S
C78         C326   1.566       .  S
C78         C336   1.561       .  S
C78         C346   1.564       .  S
C78         C369   1.569       .  S
C79         C306   1.562       .  S
C79         C316   1.566       .  S
C79         C349   1.564       .  S
C79         C399   1.570       .  S
C80         C296   1.566       .  S
C80         C319   1.564   1_554  S
C80         C376   1.565       .  S
C80         C549   1.562       .  S
N81          N82   1.320       .  A
N81          C85   1.345       .  A
N81         Cu89   2.065       .  S
N82          C83   1.345       .  A
N82         Cu88   2.078       .  S
C83          C84   1.386       .  A
C83          H86   1.082       .  S
C84          C85   1.385       .  A
C84         C286   1.480       .  S
C85          H87   1.081       .  S
Cu88         N91   2.078       .  S
Cu89         N99   2.066       .  S
Cu90         N92   2.092       .  S
Cu90         N98   2.091       .  S
N91          N92   1.323       .  A
N91          C95   1.346       .  A
N92          C93   1.347       .  A
C93          C94   1.388       .  A
C93          H96   1.082       .  S
C94          C95   1.385       .  A
C94         C466   1.484       .  S
C95          H97   1.081       .  S
N98          N99   1.322       .  A
N98         C102   1.352       .  A
N99         C100   1.338       .  A
C100        C101   1.384       .  A
C100        H103   1.082       .  S
C101        C102   1.389       .  A
C101        C299   1.484       .  S
C102        H104   1.082       .  S
N105        N106   1.323       .  A
N105        C109   1.347       .  A
N105       Cu113   2.085       .  S
N106        C107   1.349       .  A
N106       Cu112   2.095       .  S
C107        C108   1.389       .  A
C107        H110   1.082       .  S
C108        C109   1.388       .  A
C108        C436   1.490       .  S
C109        H111   1.082       .  S
Cu112       N115   2.096       .  S
Cu113       N123   2.084       .  S
Cu114       N116   2.077       .  S
Cu114       N122   2.077       .  S
N115        N116   1.324       .  A
N115        C119   1.350       .  A
N116        C117   1.344       .  A
C117        C118   1.380       .  A
C117        H120   1.082       .  S
C118        C119   1.386       .  A
C118        C339   1.474       .  S
C119        H121   1.082       .  S
N122        N123   1.321       .  A
N122        C126   1.348       .  A
N123        C124   1.345       .  A
C124        C125   1.387       .  A
C124        H127   1.082       .  S
C125        C126   1.388       .  A
C125        C276   1.487       .  S
C126        H128   1.082       .  S
C129        C246   1.584       .  S
C129        C256   1.580       .  S
C129        C266   1.557       .  S
C129        C289   1.581       .  S
C130        C236   1.568       .  S
C130        C259   1.581   1_565  S
C130        C409   1.587       .  S
C130        C539   1.585       .  S
C131        C216   1.563       .  S
C131        C226   1.574   1_565  S
C131        C239   1.569       .  S
C131        C279   1.565       .  S
C132        C206   1.565       .  S
C132        C229   1.572       .  S
C132        C269   1.562       .  S
C132        C389   1.572       .  S
N133        N134   1.323       .  A
N133        C137   1.352       .  A
N133       Cu141   2.091       .  S
N134        C135   1.342       .  A
N134       Cu140   2.075       .  S
C135        C136   1.382       .  A
C135        H138   1.082       .  S
C136        C137   1.388       .  A
C136        C209   1.479       .  S
C137        H139   1.082       .  S
Cu140       N143   2.075       .  S
Cu141       N151   2.092       .  S
Cu142       N144   2.081       .  S
Cu142       N150   2.082       .  S
N143        N144   1.321       .  A
N143        C147   1.345       .  A
N144        C145   1.348       .  A
C145        C146   1.386       .  A
C145        H148   1.082       .  S
C146        C147   1.383       .  A
C146        C506   1.476       .  S
C147        H149   1.082       .  S
N150        N151   1.324       .  A
N150        C154   1.345       .  A
N151        C152   1.348       .  A
C152        C153   1.388       .  A
C152        H155   1.082       .  S
C153        C154   1.385       .  A
C153        C329   1.486       .  S
C154        H156   1.082       .  S
N157        N158   1.319       .  A
N157        C161   1.351       .  A
N157       Cu165   2.097       .  S
N158        C159   1.341       .  A
N158       Cu164   2.066       .  S
C159        C160   1.390       .  A
C159        H162   1.079       .  S
C160        C161   1.397       .  A
C160        C249   1.500       .  S
C161        H163   1.081       .  S
Cu164       N167   2.065       .  S
Cu165       N175   2.099       .  S
Cu166       N168   2.091       .  S
Cu166       N174   2.092       .  S
N167        N168   1.320       .  A
N167        C171   1.343       .  A
N168        C169   1.349       .  A
C169        C170   1.393       .  A
C169        H172   1.082       .  S
C170        C171   1.386       .  A
C170        C496   1.490       .  S
C171        H173   1.081       .  S
N174        N175   1.325       .  A
N174        C178   1.346       .  A
N175        C176   1.349       .  A
C176        C177   1.389       .  A
C176        H179   1.082       .  S
C177        C178   1.387       .  A
C177        C356   1.491       .  S
C178        H180   1.082       .  S
N181        N182   1.322       .  A
N181        C185   1.347       .  A
N181       Cu189   2.079       .  S
N182        C183   1.347       .  A
N182       Cu188   2.081       .  S
C183        C184   1.384       .  A
C183        H186   1.082       .  S
C184        C185   1.384       .  A
C184        C219   1.474       .  S
C185        H187   1.082       .  S
Cu188       N191   2.081       .  S
Cu189       N199   2.079       .  S
Cu190       N192   2.089       .  S
Cu190       N198   2.089       .  S
N191        N192   1.323       .  A
N191        C195   1.344       .  A
N192        C193   1.349       .  A
C193        C194   1.390       .  A
C193        H196   1.081       .  S
C194        C195   1.386       .  A
C194        C309   1.488       .  S
C195        H197   1.082       .  S
N198        N199   1.323       .  A
N198        C202   1.346       .  A
N199        C200   1.346       .  A
C200        C201   1.387       .  A
C200        H203   1.082       .  S
C201        C202   1.389       .  A
C201        C446   1.488       .  S
C202        H204   1.082       .  S
C205        C206   1.417       .  A
C205        C210   1.407       .  A
C205        H212   1.077       .  S
C206        C207   1.422       .  A
C207        C208   1.392       .  A
C207        F214   1.358       .  S
C208        C209   1.396       .  A
C208        H213   1.084       .  S
C209        C210   1.403       .  A
C210        F211   1.357       .  S
C215        C216   1.418       .  A
C215        C220   1.395   1_455  A
C215        H222   1.083       .  S
C216        C217   1.425   1_455  A
C217        C218   1.405       .  A
C217        F224   1.355       .  S
C218        C219   1.399       .  A
C218        H223   1.083       .  S
C219        C220   1.396       .  A
C220        F221   1.358       .  S
C225        C226   1.409       .  A
C225        C230   1.395       .  A
C225        H232   1.082       .  S
C226        C227   1.424       .  A
C227        C228   1.408       .  A
C227        F234   1.353   1_455  S
C228        C229   1.412       .  A
C228        H233   1.076   1_455  S
C229        C230   1.418       .  A
C230        F231   1.355       .  S
C235        C236   1.415       .  A
C235        C240   1.402       .  A
C235        H242   1.081   1_455  S
C236        C237   1.422       .  A
C237        C238   1.404       .  A
C237        F244   1.356       .  S
C238        C239   1.416       .  A
C238        H243   1.079       .  S
C239        C240   1.414       .  A
C240        F241   1.358   1_455  S
C245        C246   1.417       .  A
C245        C250   1.396       .  A
C245        H252   1.065       .  S
C246        C247   1.429       .  A
C247        C248   1.405       .  A
C247        F254   1.355       .  S
C248        C249   1.403       .  A
C248        H253   1.081       .  S
C249        C250   1.405       .  A
C250        F251   1.356       .  S
C255        C256   1.415       .  A
C255        C260   1.385       .  A
C255        H262   1.080       .  S
C256        C257   1.415       .  A
C257        C258   1.410       .  A
C257        F264   1.358       .  S
C258        C259   1.424       .  A
C258        H263   1.083       .  S
C259        C260   1.416       .  A
C260        F261   1.351       .  S
C265        C266   1.411       .  A
C265        C270   1.414       .  A
C265        H272   1.081       .  S
C266        C267   1.415       .  A
C267        C268   1.388       .  A
C267        F274   1.359   1_455  S
C268        C269   1.410       .  A
C268        H273   1.080       .  S
C269        C270   1.420       .  A
C270        F271   1.355       .  S
C275        C276   1.402       .  A
C275        C280   1.398       .  A
C275        H282   1.083       .  S
C276        C277   1.405       .  A
C277        C278   1.401       .  A
C277        F284   1.357       .  S
C278        C279   1.418       .  A
C278        H283   1.079   1_565  S
C279        C280   1.419       .  A
C280        F281   1.357       .  S
C285        C286   1.396       .  A
C285        C290   1.397   1_655  A
C285        H292   1.083       .  S
C286        C287   1.402       .  A
C287        C288   1.400   1_655  A
C287        F294   1.357       .  S
C288        C289   1.419       .  A
C288        H293   1.072       .  S
C289        C290   1.426       .  A
C290        F291   1.359       .  S
C295        C296   1.419       .  A
C295        C300   1.385       .  A
C295        H302   1.079       .  S
C296        C297   1.421       .  A
C297        C298   1.411       .  A
C297        F304   1.357       .  S
C298        C299   1.405       .  A
C298        H303   1.083       .  S
C299        C300   1.399       .  A
C300        F301   1.358       .  S
C305        C306   1.415   1_565  A
C305        C310   1.402       .  A
C305        H312   1.078       .  S
C306        C307   1.418       .  A
C307        C308   1.398   1_545  A
C307        F314   1.358       .  S
C308        C309   1.403       .  A
C308        H313   1.083       .  S
C309        C310   1.407       .  A
C310        F311   1.356       .  S
C315        C316   1.413       .  A
C315        C320   1.409       .  A
C315        H322   1.083       .  S
C316        C317   1.419       .  A
C317        C318   1.384       .  A
C317        F324   1.355       .  S
C318        C319   1.411       .  A
C318        H323   1.081       .  S
C319        C320   1.417       .  A
C320        F321   1.356       .  S
C325        C326   1.417       .  A
C325        C330   1.401       .  A
C325        H332   1.083       .  S
C326        C327   1.427       .  A
C327        C328   1.397       .  A
C327        F334   1.354       .  S
C328        C329   1.399       .  A
C328        H333   1.083       .  S
C329        C330   1.402       .  A
C330        F331   1.357       .  S
C335        C336   1.419   1_565  A
C335        C340   1.403       .  A
C335        H342   1.080       .  S
C336        C337   1.420       .  A
C337        C338   1.396   1_545  A
C337        F344   1.356       .  S
C338        C339   1.397       .  A
C338        H343   1.084       .  S
C339        C340   1.401       .  A
C340        F341   1.358       .  S
C345        C346   1.419       .  A
C345        C350   1.410       .  A
C345        H352   1.078       .  S
C346        C347   1.413       .  A
C347        C348   1.390       .  A
C347        F354   1.357   1_545  S
C348        C349   1.413       .  A
C348        H353   1.083   1_545  S
C349        C350   1.415       .  A
C350        F351   1.354       .  S
C355        C356   1.402       .  A
C355        C360   1.400       .  A
C355        H362   1.083       .  S
C356        C357   1.404       .  A
C357        C358   1.401       .  A
C357        F364   1.357       .  S
C358        C359   1.418       .  A
C358        H363   1.083       .  S
C359        C360   1.423       .  A
C360        F361   1.353   1_554  S
C365        C366   1.415       .  A
C365        C370   1.397       .  A
C365        H372   1.079       .  S
C366        C367   1.417       .  A
C367        C368   1.405       .  A
C367        F374   1.357       .  S
C368        C369   1.416       .  A
C368        H373   1.083       .  S
C369        C370   1.418       .  A
C370        F371   1.356   1_545  S
C375        C376   1.413       .  A
C375        C380   1.389       .  A
C375        H382   1.083       .  S
C376        C377   1.415       .  A
C377        C378   1.410       .  A
C377        F384   1.354       .  S
C378        C379   1.418       .  A
C378        H383   1.079       .  S
C379        C380   1.412       .  A
C380        F381   1.357   1_545  S
C385        C386   1.404       .  A
C385        C390   1.398   1_655  A
C385        H392   1.081   1_655  S
C386        C387   1.413       .  A
C387        C388   1.406       .  A
C387        F394   1.355       .  S
C388        C389   1.413   1_655  A
C388        H393   1.079       .  S
C389        C390   1.421       .  A
C390        F391   1.357       .  S
C395        C396   1.395       .  A
C395        C400   1.393       .  A
C395        H402   1.084       .  S
C396        C397   1.406       .  A
C397        C398   1.410       .  A
C397        F404   1.357       .  S
C398        C399   1.418       .  A
C398        H403   1.082       .  S
C399        C400   1.428       .  A
C400        F401   1.355       .  S
C405        C406   1.398       .  A
C405        C410   1.404       .  A
C405        H412   1.083       .  S
C406        C407   1.401       .  A
C407        C408   1.397       .  A
C407        F414   1.357       .  S
C408        C409   1.422       .  A
C408        H413   1.074   1_565  S
C409        C410   1.429       .  A
C410        F411   1.356       .  S
C415        C416   1.416       .  A
C415        C420   1.396   1_545  A
C415        H422   1.083       .  S
C416        C417   1.424       .  A
C417        C418   1.403   1_545  A
C417        F424   1.356       .  S
C418        C419   1.399       .  A
C418        H423   1.083       .  S
C419        C420   1.398       .  A
C420        F421   1.357       .  S
C425        C426   1.426   1_554  A
C425        C430   1.410       .  A
C425        H432   1.083       .  S
C426        C427   1.433       .  A
C427        C428   1.393       .  A
C427        F434   1.352       .  S
C428        C429   1.395   1_556  A
C428        H433   1.083       .  S
C429        C430   1.403       .  A
C430        F431   1.357       .  S
C435        C436   1.404       .  A
C435        C440   1.406       .  A
C435        H442   1.083       .  S
C436        C437   1.404       .  A
C437        C438   1.399       .  A
C437        F444   1.357       .  S
C438        C439   1.419       .  A
C438        H443   1.080       .  S
C439        C440   1.422       .  A
C440        F441   1.357       .  S
C445        C446   1.403       .  A
C445        C450   1.402       .  A
C445        H452   1.083       .  S
C446        C447   1.402       .  A
C447        C448   1.397       .  A
C447        F454   1.357       .  S
C448        C449   1.416       .  A
C448        H453   1.083       .  S
C449        C450   1.424       .  A
C450        F451   1.355   1_655  S
C455        C456   1.410       .  A
C455        C460   1.399       .  A
C455        H462   1.077       .  S
C456        C457   1.410       .  A
C457        C458   1.396       .  A
C457        F464   1.358       .  S
C458        C459   1.417       .  A
C458        H463   1.066       .  S
C459        C460   1.428       .  A
C460        F461   1.354       .  S
C465        C466   1.401       .  A
C465        C470   1.400   1_554  A
C465        H472   1.083       .  S
C466        C467   1.405       .  A
C467        C468   1.399       .  A
C467        F474   1.357       .  S
C468        C469   1.416   1_554  A
C468        H473   1.079   1_655  S
C469        C470   1.420       .  A
C470        F471   1.357       .  S
C475        C476   1.423       .  A
C475        C480   1.410       .  A
C475        H482   1.083       .  S
C476        C477   1.431       .  A
C477        C478   1.393       .  A
C477        F484   1.354       .  S
C478        C479   1.395       .  A
C478        H483   1.083       .  S
C479        C480   1.406       .  A
C480        F481   1.357       .  S
C485        C486   1.415       .  A
C485        C490   1.395       .  A
C485        H492   1.075   1_556  S
C486        C487   1.421       .  A
C487        C488   1.405       .  A
C487        F494   1.353       .  S
C488        C489   1.413       .  A
C488        H493   1.078       .  S
C489        C490   1.410       .  A
C490        F491   1.358   1_556  S
C495        C496   1.402       .  A
C495        C500   1.400   1_554  A
C495        H502   1.083       .  S
C496        C497   1.408       .  A
C497        C498   1.399       .  A
C497        F504   1.356       .  S
C498        C499   1.415   1_554  A
C498        H503   1.079       .  S
C499        C500   1.419       .  A
C500        F501   1.357       .  S
C505        C506   1.395       .  A
C505        C510   1.396       .  A
C505        H512   1.084       .  S
C506        C507   1.402       .  A
C507        C508   1.404       .  A
C507        F514   1.357       .  S
C508        C509   1.418       .  A
C508        H513   1.080       .  S
C509        C510   1.424       .  A
C510        F511   1.357       .  S
C515        C516   1.420       .  A
C515        C520   1.397       .  A
C515        H522   1.064       .  S
C516        C517   1.429       .  A
C517        C518   1.403       .  A
C517        F524   1.353       .  S
C518        C519   1.410       .  A
C518        H523   1.078       .  S
C519        C520   1.408       .  A
C520        F521   1.357       .  S
C525        C526   1.409       .  A
C525        C530   1.401       .  A
C525        H532   1.083       .  S
C526        C527   1.420       .  A
C527        C528   1.406       .  A
C527        F534   1.355       .  S
C528        C529   1.417       .  A
C528        H533   1.072       .  S
C529        C530   1.423       .  A
C530        F531   1.357       .  S
C535        C536   1.402       .  A
C535        C540   1.409       .  A
C535        H542   1.083   1_565  S
C536        C537   1.400       .  A
C537        C538   1.394   1_655  A
C537        F544   1.358       .  S
C538        C539   1.413       .  A
C538        H543   1.064       .  S
C539        C540   1.430   1_455  A
C540        F541   1.356   1_565  S
C545        C546   1.402       .  A
C545        C550   1.396   1_565  A
C545        H552   1.083       .  S
C546        C547   1.409       .  A
C547        C548   1.403       .  A
C547        F554   1.356       .  S
C548        C549   1.412   1_565  A
C548        H553   1.079   1_554  S
C549        C550   1.419       .  A
C550        F551   1.358       .  S
C555        C556   1.397       .  A
C555        C560   1.401   1_554  A
C555        H562   1.083       .  S
C556        C557   1.397   1_554  A
C557        C558   1.396       .  A
C557        F564   1.358       .  S
C558        C559   1.417       .  A
C558        H563   1.083       .  S
C559        C560   1.424       .  A
C560        F561   1.355       .  S
