geometry optimzed in LAMMPS
_audit_creation_date              2020-11-30 
_audit_creation_method            'lammps2cif' 
_symmetry_space_group_name_H-M    'P1' 
_symmetry_Int_Tables_number       1 
_symmetry_cell_setting            triclinic 
loop_ 
_symmetry_equiv_pos_as_xyz 
  x,y,z 
_cell_length_a                    41.87874902 
_cell_length_b                    38.71475769109345 
_cell_length_c                    40.05065079000811 
_cell_angle_alpha                 90.9177580368578 
_cell_angle_beta                  90.94242667563041 
_cell_angle_gamma                 88.286279069962 
loop_ 
_atom_site_label 
_atom_site_type_symbol 
_atom_site_fract_x 
_atom_site_fract_y 
_atom_site_fract_z 
_atom_site_charge 
O1          O  0.50379466  0.41909167  0.45366179    -0.80600
O2          O  0.47760357  0.54863831  0.55904336    -0.65300
O3          O  0.49194771  0.47735586  0.48947994    -1.11900
C4          C  0.55822513  0.56764827  0.45707303     1.06300
O5          O  0.50296726  0.59410328  0.53774731    -0.78500
O6          O  0.48005228  0.57146530  0.44372251    -0.66100
Ni7        Ni  0.50682753  0.43288577  0.50159049     1.34900
C8          C  0.47397654  0.54456388  0.42575747     0.85000
O9          O  0.45662264  0.47676975  0.54577218    -0.79100
O10         O  0.46132352  0.42772001  0.51318746    -0.89300
C11         C  0.48816969  0.58027192  0.56227012     0.84600
O12         O  0.51617713  0.44397261  0.54848044    -0.67500
O13         O  0.53907920  0.58771242  0.47463789    -0.86800
C14         C  0.53366903  0.46901695  0.55749746     0.85400
C15         C  0.44500370  0.44793327  0.53340525     1.07000
H16         H  0.53070706  0.54034553  0.51200908     0.38800
O17         O  0.51103489  0.53696906  0.49961852    -1.09500
O18         O  0.48629032  0.51534072  0.43364599    -0.66100
Ni19       Ni  0.52086381  0.50326940  0.46578615     1.26300
O20         O  0.52311177  0.49895205  0.55118491    -0.66400
O21         O  0.55132703  0.53589349  0.44803968    -0.78700
C22         C  0.52222419  0.43133561  0.43111420     0.84800
O23         O  0.53149508  0.46352613  0.43367107    -0.65800
Ni24       Ni  0.49481789  0.58094900  0.48990094     1.27400
Ni25       Ni  0.48447840  0.51033788  0.52499950     1.26100
H26         H  0.47247177  0.47548270  0.47637790     0.39300
O27         O  0.57202298  0.24606569  0.22566519    -0.80600
O28         O  0.46334667  0.19220173  0.31915349    -0.65300
O29         O  0.52135569  0.21370113  0.24952781    -1.11900
C30         C  0.42818608  0.28646387  0.22230857     1.06300
O31         O  0.41771308  0.22097888  0.30124635    -0.78500
O32         O  0.43077246  0.20470957  0.20501414    -0.66100
Ni33       Ni  0.55657566  0.23193874  0.27071795     1.34900
C34         C  0.45487226  0.19901786  0.18607692     0.85000
O35         O  0.53295259  0.16975214  0.30228992    -0.79100
O36         O  0.57447067  0.18511352  0.27032337    -0.89300
C37         C  0.43352285  0.20310772  0.32357471     0.84600
O38         O  0.53461980  0.27558887  0.28299318    -0.67500
O39         O  0.41288977  0.26517658  0.24085189    -0.86800
C40         C  0.51882701  0.27168907  0.31013848     0.85400
C41         C  0.56279759  0.16399761  0.29143579     1.07000
H42         H  0.46244603  0.25272478  0.27720779     0.38800
O43         O  0.46570845  0.23239028  0.26324628    -1.09500
O44         O  0.48201778  0.20969992  0.19555045    -0.66100
Ni45       Ni  0.49241519  0.24558303  0.22934965     1.26300
O46         O  0.50688134  0.24171845  0.31461430    -0.66400
O47         O  0.45807162  0.27946285  0.21349537    -0.78700
C48         C  0.55640085  0.25660623  0.19911218     0.84800
O49         O  0.52526532  0.25800412  0.19803708    -0.65800
Ni50       Ni  0.42520997  0.21621489  0.25277773     1.27400
Ni51       Ni  0.49561745  0.20193207  0.28490886     1.26100
H52         H  0.52632745  0.19403039  0.23516582     0.39300
C53         C  0.71560772  0.80622055  0.73486264     0.80500
N54         N  0.71452824  0.82713845  0.76273369    -0.77800
C55         C  0.71588779  0.81297218  0.79365491     0.82900
N56         N  0.71953055  0.77839580  0.79640884    -0.77800
C57         C  0.72202251  0.75747476  0.76949324     0.83000
N58         N  0.71999015  0.77137674  0.73871749    -0.79500
C59         C  0.75910535  0.00719568  0.95195252     0.80500
N60         N  0.73133339  0.00984219  0.96930795    -0.77800
C61         C  0.72775377  0.99080591  0.99722392     0.82900
N62         N  0.75193845  0.96885560  0.00677551    -0.77800
C63         C  0.77943768  0.96541042  0.98968536     0.83000
N64         N  0.78303609  0.98490263  0.96219910    -0.79500
C65         C  0.97069042  0.75164547  0.94868384     0.80500
N66         N  0.99335583  0.73697193  0.92902895    -0.77800
C67         C  0.02468156  0.73954452  0.93653175     0.82900
N68         N  0.03383453  0.75744455  0.96457642    -0.77800
C69         C  0.01114882  0.77207093  0.98473227     0.83000
N70         N  0.97973948  0.76932776  0.97647817    -0.79500
C71         C  0.91542438  0.95229902  0.86377188     0.80500
N72         N  0.90576802  0.92613070  0.84349261    -0.77800
C73         C  0.92669217  0.90181895  0.83137506     0.82900
N74         N  0.95724705  0.90228071  0.84290109    -0.77800
C75         C  0.96641725  0.92586100  0.86639153     0.83000
N76         N  0.94578126  0.95140787  0.87566223    -0.79500
N77         N  0.10806165  0.84600911  0.84735228    -0.36300
N78         N  0.14961341  0.90172400  0.84583251    -0.56900
N79         N  0.19898584  0.86587604  0.88874734    -0.36300
N80         N  0.15917213  0.80305873  0.89019015    -0.56900
C81         C  0.08613314  0.87220895  0.84567073     0.27200
C82         C  0.09247856  0.81650064  0.85181138     0.27200
C83         C  0.21755118  0.88208209  0.86619053     0.27200
C84         C  0.21591030  0.84143937  0.90676441     0.27200
C85         C  0.12324516  0.92099084  0.85169040     0.35900
C86         C  0.17429768  0.92207281  0.85154712     0.35900
C87         C  0.12789316  0.79708037  0.89254279     0.35900
C88         C  0.16808835  0.81378523  0.92111953     0.35900
C89         C  0.05587948  0.85854505  0.84633531    -0.21600
C90         C  0.05989432  0.82377332  0.85154845    -0.21600
C91         C  0.24824086  0.86758871  0.87038720    -0.21600
C92         C  0.24735465  0.84273669  0.89621845    -0.21600
C93         C  0.13108725  0.95468314  0.85974507    -0.22700
C94         C  0.16391629  0.95534486  0.85977005    -0.22700
C95         C  0.11662115  0.80504938  0.92414878    -0.22700
C96         C  0.14243923  0.81552309  0.94256574    -0.22700
C97         C  0.09250259  0.90792471  0.84994370    -0.18000
C98         C  0.10819688  0.78722213  0.86568982    -0.18000
C99         C  0.20012148  0.81864370  0.93004582    -0.18000
C100        C  0.20545053  0.91072997  0.84509336    -0.18000
H101        H  0.03318533  0.87244686  0.84729946     0.14900
H102        H  0.04104076  0.80793666  0.86007635     0.14900
H103        H  0.26925515  0.87467574  0.85703974     0.14900
H104        H  0.26728294  0.82679216  0.90509430     0.14900
H105        H  0.11490380  0.97635681  0.86471959     0.13200
H106        H  0.17848391  0.97742321  0.86505040     0.13200
H107        H  0.09229167  0.80352699  0.93262895     0.13200
H108        H  0.14252188  0.82351970  0.96859397     0.13200
H109        H  0.13271480  0.84719284  0.84947772     0.26400
H110        H  0.17476902  0.87135215  0.89238838     0.26400
N111        N  0.91627897  0.86671008  0.09224792    -0.36300
N112        N  0.94621540  0.83664767  0.14730500    -0.56900
N113        N  0.89692807  0.86681846  0.19562552    -0.36300
N114        N  0.86439980  0.89256324  0.13634524    -0.56900
C115        C  0.94061912  0.84927632  0.07740301     0.27200
C116        C  0.89241717  0.87024201  0.06960561     0.27200
C117        C  0.90696609  0.83597943  0.21030824     0.27200
C118        C  0.86777017  0.87925193  0.20753393     0.27200
C119        C  0.97221229  0.83900303  0.12807976     0.35900
C120        C  0.95678514  0.83088187  0.17853480     0.35900
C121        C  0.85869454  0.90680350  0.10601435     0.35900
C122        C  0.85490294  0.91666052  0.15936069     0.35900
C123        C  0.93220987  0.84195324  0.04457016    -0.21600
C124        C  0.90149211  0.85492298  0.03962514    -0.21600
C125        C  0.88323173  0.82880952  0.23299448    -0.21600
C126        C  0.85936555  0.85580548  0.23172133    -0.21600
C127        C  0.99976167  0.83431439  0.14703130    -0.22700
C128        C  0.98989483  0.82909550  0.17919119    -0.22700
C129        C  0.84545185  0.93957575  0.10955193    -0.22700
C130        C  0.84450795  0.94643310  0.14310196    -0.22700
C131        C  0.97027719  0.84099966  0.09308964    -0.18000
C132        C  0.86452033  0.89037908  0.07490112    -0.18000
C133        C  0.84902157  0.90947461  0.19359028    -0.18000
C134        C  0.93734091  0.81623666  0.20240809    -0.18000
H135        H  0.94703238  0.82931293  0.02602452     0.14900
H136        H  0.88793912  0.85435235  0.01639056     0.14900
H137        H  0.88297127  0.80650519  0.24891776     0.14900
H138        H  0.83757146  0.85691753  0.24587683     0.14900
H139        H  0.02404133  0.83329614  0.13818849     0.13200
H140        H  0.00476540  0.82226054  0.20052719     0.13200
H141        H  0.83745653  0.95664266  0.08988778     0.13200
H142        H  0.83516430  0.96991751  0.15447815     0.13200
H143        H  0.91646339  0.87747990  0.11610393     0.26400
H144        H  0.90965862  0.87934166  0.17750375     0.26400
N145        N  0.85453738  0.86228182  0.65963262    -0.36300
N146        N  0.91527936  0.88372285  0.63262605    -0.56900
N147        N  0.88651488  0.88069692  0.56518571    -0.36300
N148        N  0.82777845  0.85824328  0.59692071    -0.56900
C149        C  0.87500727  0.85497324  0.68460187     0.27200
C150        C  0.82737850  0.84568770  0.66520015     0.27200
C151        C  0.91834976  0.88149577  0.56041845     0.27200
C152        C  0.87293409  0.85815524  0.54286996     0.27200
C153        C  0.91710158  0.89273778  0.66553308     0.35900
C154        C  0.93296801  0.90620055  0.61558529     0.35900
C155        C  0.80194331  0.86562466  0.61476691     0.35900
C156        C  0.82213993  0.86964992  0.56627393     0.35900
C157        C  0.86117401  0.83224783  0.70628022    -0.21600
C158        C  0.83071211  0.82651950  0.69397372    -0.21600
C159        C  0.92559419  0.85951014  0.53355464    -0.21600
C160        C  0.89707347  0.84409199  0.52309466    -0.21600
C161        C  0.93610530  0.92103728  0.66974901    -0.22700
C162        C  0.94572076  0.92995991  0.63828824    -0.22700
C163        C  0.77891435  0.88249644  0.59569886    -0.22700
C164        C  0.79161603  0.88464195  0.56409486    -0.22700
C165        C  0.90152770  0.87536356  0.69145666    -0.18000
C166        C  0.79938450  0.85160640  0.64611643    -0.18000
C167        C  0.83900590  0.85247175  0.54130624    -0.18000
C168        C  0.93923008  0.90255952  0.58047822    -0.18000
H169        H  0.87101744  0.82311342  0.72979958     0.14900
H170        H  0.81267976  0.81163401  0.70567266     0.14900
H171        H  0.94895775  0.85402646  0.52328561     0.14900
H172        H  0.89444797  0.82549579  0.50285949     0.14900
H173        H  0.94182121  0.93435886  0.69294996     0.13200
H174        H  0.96041199  0.95169511  0.63347432     0.13200
H175        H  0.75569204  0.89148950  0.60389100     0.13200
H176        H  0.77915176  0.89335542  0.54174366     0.13200
H177        H  0.85767877  0.88131312  0.64204472     0.26400
H178        H  0.87461333  0.89598593  0.58303383     0.26400
N179        N  0.83283263  0.64979914  0.87929495    -0.36300
N180        N  0.81225804  0.59402122  0.84165839    -0.56900
N181        N  0.86311000  0.54654181  0.87416667    -0.36300
N182        N  0.88048478  0.60429997  0.91583793    -0.56900
C183        C  0.80616486  0.66410650  0.86515766     0.27200
C184        C  0.84128009  0.66999632  0.90506983     0.27200
C185        C  0.84207111  0.52444476  0.85981513     0.27200
C186        C  0.88016217  0.52994112  0.89867194     0.27200
C187        C  0.80230228  0.62016010  0.82193402     0.35900
C188        C  0.81836150  0.56724070  0.82117962     0.35900
C189        C  0.89045273  0.63662343  0.92291961     0.35900
C190        C  0.90577517  0.58224282  0.92186294     0.35900
C191        C  0.79724416  0.69396209  0.88252930    -0.21600
C192        C  0.81963423  0.69775155  0.90794361    -0.21600
C193        C  0.84621807  0.49256962  0.87479103    -0.21600
C194        C  0.87037473  0.49592338  0.89908503    -0.21600
C195        C  0.80109311  0.60996297  0.78879444    -0.22700
C196        C  0.81179399  0.57634044  0.78824960    -0.22700
C197        C  0.92203377  0.63506157  0.93387493    -0.22700
C198        C  0.93157871  0.60082599  0.93364831    -0.22700
C199        C  0.79304945  0.65245902  0.83461800    -0.18000
C200        C  0.87158943  0.66772311  0.92012281    -0.18000
C201        C  0.90457502  0.54548553  0.91934082    -0.18000
C202        C  0.82061868  0.53352716  0.83288828    -0.18000
H203        H  0.77784598  0.71198005  0.87642939     0.14900
H204        H  0.82110362  0.71952489  0.92513554     0.14900
H205        H  0.83346352  0.46933976  0.86870284     0.14900
H206        H  0.87949485  0.47560478  0.91517053     0.14900
H207        H  0.79338672  0.62491530  0.76738751     0.13200
H208        H  0.81338795  0.56015434  0.76625027     0.13200
H209        H  0.93675309  0.65640429  0.94148045     0.13200
H210        H  0.95515975  0.59133520  0.94082197     0.13200
H211        H  0.84727402  0.62983853  0.86972566     0.26400
H212        H  0.86615967  0.57180823  0.86662239     0.26400
N213        N  0.65189490  0.86030728  0.96951433    -0.36300
N214        N  0.61378496  0.83248684  0.90662059    -0.56900
N215        N  0.55436812  0.86241623  0.92202843    -0.36300
N216        N  0.59336095  0.89337962  0.98143450    -0.56900
C217        C  0.67364354  0.85659100  0.94539365     0.27200
C218        C  0.66075440  0.88763354  0.98864996     0.27200
C219        C  0.54901165  0.85282153  0.88920687     0.27200
C220        C  0.54055872  0.89424094  0.92877744     0.27200
C221        C  0.64301792  0.81655014  0.90906857     0.35900
C222        C  0.59543468  0.81253977  0.88605976     0.35900
C223        C  0.60846904  0.89812262  0.01107965     0.35900
C224        C  0.56209549  0.89846104  0.98658165     0.35900
C225        C  0.69780674  0.87994009  0.95040185    -0.21600
C226        C  0.68982363  0.89937166  0.97801842    -0.21600
C227        C  0.52974307  0.87873721  0.87507280    -0.21600
C228        C  0.52488419  0.90485014  0.89964272    -0.21600
C229        C  0.64353047  0.78677893  0.88958815    -0.22700
C230        C  0.61364399  0.78395885  0.87562309    -0.22700
C231        C  0.58689707  0.90609024  0.03578338    -0.22700
C232        C  0.55730719  0.90557794  0.02037357    -0.22700
C233        C  0.67112756  0.83400815  0.91797748    -0.18000
C234        C  0.64107606  0.90439639  0.01256379    -0.18000
C235        C  0.54285717  0.91250178  0.96094070    -0.18000
C236        C  0.56468567  0.82304827  0.87246943    -0.18000
H237        H  0.71835063  0.88365133  0.93495258     0.14900
H238        H  0.70307690  0.92090465  0.98766295     0.14900
H239        H  0.52162134  0.87980902  0.84931189     0.14900
H240        H  0.51163145  0.92899271  0.89623552     0.14900
H241        H  0.66407665  0.77019563  0.88401859     0.13200
H242        H  0.60720040  0.76423785  0.85783308     0.13200
H243        H  0.59214637  0.91390584  0.06129203     0.13200
H244        H  0.53513634  0.91386650  0.03167945     0.13200
H245        H  0.63130270  0.84595997  0.97139354     0.26400
H246        H  0.56747258  0.84788082  0.93948504     0.26400
N247        N  0.83401207  0.07921436  0.82795120    -0.36300
N248        N  0.80362286  0.15745591  0.86457911    -0.56900
N249        N  0.86537674  0.19716338  0.86942750    -0.36300
N250        N  0.89749972  0.14803286  0.82618405    -0.56900
C251        C  0.80740995  0.09897241  0.82283956     0.27200
C252        C  0.85714264  0.09398104  0.81074277     0.27200
C253        C  0.84408531  0.21769167  0.88702644     0.27200
C254        C  0.88917208  0.21689013  0.85641404     0.27200
C255        C  0.77939785  0.13464078  0.86198530     0.35900
C256        C  0.79728456  0.17754251  0.89163368     0.35900
C257        C  0.90966263  0.11589242  0.82197543     0.35900
C258        C  0.92181596  0.16846976  0.83329438     0.35900
C259        C  0.81287094  0.12400453  0.79945168    -0.21600
C260        C  0.84462851  0.12075391  0.79200828    -0.21600
C261        C  0.85507342  0.25119751  0.88615496    -0.21600
C262        C  0.88268461  0.25081842  0.86661285    -0.21600
C263        C  0.75719531  0.14104070  0.88647394    -0.22700
C264        C  0.76884367  0.16714024  0.90569712    -0.22700
C265        C  0.94252599  0.11546370  0.82624097    -0.22700
C266        C  0.95046716  0.14947006  0.83250009    -0.22700
C267        C  0.78322216  0.10191730  0.84634458    -0.18000
C268        C  0.88972242  0.08777806  0.81743019    -0.18000
C269        C  0.91721908  0.20416609  0.83744609    -0.18000
C270        C  0.81512075  0.20638947  0.90336282    -0.18000
H271        H  0.79669157  0.14487446  0.79187695     0.14900
H272        H  0.85800348  0.13744643  0.77666442     0.14900
H273        H  0.84398970  0.27381252  0.89783498     0.14900
H274        H  0.89687942  0.27293030  0.86136556     0.14900
H275        H  0.73682522  0.12574622  0.89221439     0.13200
H276        H  0.75800109  0.17631954  0.92852833     0.13200
H277        H  0.95878102  0.09323519  0.82501844     0.13200
H278        H  0.97424753  0.15875998  0.83726592     0.13200
H279        H  0.83767808  0.06062186  0.84633324     0.26400
H280        H  0.86337481  0.17051142  0.86732877     0.26400
O281        O  0.31326170  0.50403358  0.32260187    -0.80600
O282        O  0.18963189  0.47792228  0.22832572    -0.65300
O283        O  0.26655141  0.49172094  0.27889933    -1.11900
C284        C  0.29178897  0.53532722  0.17089085     1.06300
O285        O  0.21230076  0.47294905  0.17658015    -0.78500
O286        O  0.26417591  0.43593593  0.21175626    -0.66100
Ni287      Ni  0.26794430  0.51939237  0.31710817     1.34900
C288        C  0.29362429  0.43324616  0.22166262     0.85000
O289        O  0.20898211  0.46874512  0.30022129    -0.79100
O290        O  0.24900799  0.47975676  0.33855939    -0.89300
C291        C  0.18770009  0.47248560  0.19609331     0.84600
O292        O  0.22502323  0.54105384  0.31365401    -0.67500
O293        O  0.26607612  0.51947199  0.16181786    -0.86800
C294        C  0.20780191  0.55194411  0.28913416     0.85400
C295        C  0.22234671  0.46544133  0.33027746     1.07000
H296        H  0.23972324  0.52650524  0.21438593     0.38800
O297        O  0.24881193  0.50436570  0.22099007    -1.09500
O298        O  0.30685923  0.46173815  0.23121096    -0.66100
Ni299      Ni  0.28808321  0.50964839  0.24250966     1.26300
O300        O  0.20734405  0.53349649  0.26276659    -0.66400
O301        O  0.30472918  0.53069405  0.20084221    -0.78700
C302        C  0.33442411  0.51234530  0.30125112     0.84800
O303        O  0.32665616  0.51647593  0.26976928    -0.65800
Ni304      Ni  0.25914417  0.47696005  0.18524585     1.27400
Ni305      Ni  0.22676027  0.48631163  0.25719506     1.26100
H306        H  0.27549454  0.46903046  0.28382931     0.39300
O307        O  0.31606979  0.30994857  0.51277326    -0.80600
O308        O  0.21110126  0.19611310  0.48092529    -0.65300
O309        O  0.26903724  0.26970689  0.50116400    -1.11900
C310        C  0.17391899  0.30958921  0.55633327     1.06300
O311        O  0.16462214  0.21989427  0.50056962    -0.78500
O312        O  0.18052907  0.31578053  0.47728899    -0.66100
Ni313      Ni  0.30815255  0.26277549  0.52306840     1.34900
C314        C  0.20454176  0.33443363  0.47133241     0.85000
O315        O  0.27905036  0.20888297  0.46716619    -0.79100
O316        O  0.32222830  0.24190837  0.47995037    -0.89300
C317        C  0.18038481  0.19460444  0.48621167     0.84600
O318        O  0.30215328  0.21783339  0.54099588    -0.67500
O319        O  0.15967395  0.28731881  0.53681925    -0.86800
C320        C  0.27908891  0.19870115  0.54809664     0.85400
C321        C  0.30854265  0.21810865  0.46191614     1.07000
H322        H  0.20829013  0.24857127  0.53572858     0.38800
O323        O  0.21266062  0.25963602  0.51489415    -1.09500
O324        O  0.23129434  0.32640594  0.48507133    -0.66100
Ni325      Ni  0.23908449  0.29712024  0.52507617     1.26300
O326        O  0.25203980  0.20407458  0.53350365    -0.66400
O327        O  0.20338618  0.31894939  0.55095064    -0.78700
C328        C  0.30200324  0.33308025  0.53114977     0.84800
O329        O  0.27149446  0.33176272  0.53712363    -0.65800
Ni330      Ni  0.17384028  0.26856516  0.49255374     1.27400
Ni331      Ni  0.24308838  0.23154892  0.49202268     1.26100
H332        H  0.27268356  0.28054152  0.48003819     0.39300
O333        O  0.59382625  0.76666113  0.72736233    -0.80600
O334        O  0.48777412  0.73871659  0.83121547    -0.65300
O335        O  0.54726186  0.76178539  0.76503152    -1.11900
C336        C  0.44980346  0.81022119  0.72146855     1.06300
O337        O  0.44015027  0.75122230  0.80658252    -0.78500
O338        O  0.46620880  0.73449581  0.71274813    -0.66100
Ni339      Ni  0.58591857  0.78185922  0.77298887     1.34900
C340        C  0.49308108  0.72300251  0.70203190     0.85000
O341        O  0.55355580  0.72391988  0.81995824    -0.79100
O342        O  0.59906891  0.73767708  0.79302828    -0.89300
C343        C  0.45677699  0.74004239  0.83201374     0.84600
O344        O  0.57919145  0.80121705  0.81758370    -0.67500
O345        O  0.43738406  0.79050127  0.74346500    -0.86800
C346        C  0.55601729  0.80567357  0.83770063     0.85400
C347        C  0.58350396  0.71881219  0.81326449     1.07000
H348        H  0.48265437  0.79566813  0.78301799     0.38800
O349        O  0.48964437  0.77451235  0.77183217    -1.09500
O350        O  0.51704545  0.74014630  0.71075717    -0.66100
Ni351      Ni  0.51760341  0.78440193  0.73624643     1.26300
O352        O  0.52890530  0.79203241  0.83027536    -0.66400
O353        O  0.48005329  0.80700545  0.71235069    -0.78700
C354        C  0.58171730  0.78491419  0.70351844     0.84800
O355        O  0.55168906  0.79576150  0.70393557    -0.65800
Ni356      Ni  0.45488501  0.74638544  0.75963042     1.27400
Ni357      Ni  0.51990872  0.75133040  0.79925906     1.26100
H358        H  0.55236075  0.73934439  0.75533535     0.39300
O359        O  0.32929433  0.78336460  0.00429356    -0.80600
O360        O  0.22725761  0.66396642  0.96714169    -0.65300
O361        O  0.28308712  0.73996863  0.98839030    -1.11900
C362        C  0.18989838  0.76928271  0.04951056     1.06300
O363        O  0.18281075  0.68137582  0.99525973    -0.78500
O364        O  0.18920052  0.77855421  0.97425028    -0.66100
Ni365      Ni  0.32131748  0.73398627  0.01295082     1.34900
C366        C  0.21105189  0.79455081  0.95941423     0.85000
O367        O  0.29537972  0.68271276  0.95091484    -0.79100
O368        O  0.33674910  0.71646102  0.96994347    -0.89300
C369        C  0.19884773  0.65787224  0.97908710     0.84600
O370        O  0.31703047  0.68582836  0.02769572    -0.67500
O371        O  0.17622542  0.74517957  0.03230121    -0.86800
C372        C  0.29404105  0.66500673  0.03054815     0.85400
C373        C  0.32466422  0.69444937  0.94879610     1.07000
H374        H  0.22709732  0.71349951  0.02532058     0.38800
O375        O  0.22826764  0.72503679  0.00417510    -1.09500
O376        O  0.23955766  0.78959782  0.97005063    -0.66100
Ni377      Ni  0.25186462  0.76491174  0.01214733     1.26300
O378        O  0.26793286  0.67139383  0.01550107    -0.66400
O379        O  0.21617799  0.78376893  0.03963496    -0.78700
C380        C  0.31108360  0.80841658  0.01547450     0.84800
O381        O  0.28087915  0.80339566  0.02065572    -0.65800
Ni382      Ni  0.18711018  0.73035665  0.98683839     1.27400
Ni383      Ni  0.25824832  0.70113329  0.97756218     1.26100
H384        H  0.28716749  0.75201129  0.96800050     0.39300
O385        O  0.06054559  0.48570505  0.05757489    -0.80600
O386        O  0.95613080  0.52980922  0.94599596    -0.65300
O387        O  0.01475934  0.49854951  0.01464755    -1.11900
C388        C  0.92189092  0.43114939  0.03614990     1.06300
O389        O  0.91051445  0.50660340  0.96533300    -0.78500
O390        O  0.94009742  0.53886172  0.01755424    -0.66100
Ni391      Ni  0.05464207  0.47747054  0.00929525     1.34900
C392        C  0.95518205  0.54328420  0.04517793     0.85000
O393        O  0.02308888  0.54547187  0.96741532    -0.79100
O394        O  0.06762297  0.52409879  0.99575123    -0.89300
C395        C  0.92531063  0.52504042  0.94418342     0.84600
O396        O  0.05126758  0.46312884  0.96213795    -0.67500
O397        O  0.90929256  0.44789713  0.01140408    -0.86800
C398        C  0.03029536  0.46381784  0.93849609     0.85400
C399        C  0.05329950  0.54724733  0.97697258     1.07000
H400        H  0.96065165  0.45850726  0.98114252     0.38800
O401        O  0.96161917  0.47917401  0.99493302    -1.09500
O402        O  0.96879915  0.51634830  0.05873353    -0.66100
Ni403      Ni  0.98435514  0.47179526  0.03519451     1.26300
O404        O  0.00353349  0.47987620  0.94291261    -0.66400
O405        O  0.94844124  0.44239972  0.05060203    -0.78700
C406        C  0.04278522  0.47396634  0.08078006     0.84800
O407        O  0.01330069  0.46466078  0.07462473    -0.65800
Ni408      Ni  0.92327610  0.49488090  0.01087214     1.27400
Ni409      Ni  0.98915968  0.51283412  0.97849518     1.26100
H410        H  0.01779467  0.51898351  0.02837306     0.39300
O411        O  0.19913097  0.08039346  0.77112315    -0.80600
O412        O  0.30778616  0.97244206  0.72738064    -0.65300
O413        O  0.23149668  0.02784592  0.74544170    -1.11900
C414        C  0.21833466  0.92912406  0.81413738     1.06300
O415        O  0.29425328  0.92354794  0.75388935    -0.78500
O416        O  0.20342735  0.92893423  0.73268178    -0.66100
Ni417      Ni  0.24376716  0.07018170  0.75934038     1.34900
C418        C  0.18203310  0.95270628  0.72738286     0.85000
O419        O  0.28174460  0.04393848  0.70836382    -0.79100
O420        O  0.24160494  0.08430160  0.71319180    -0.89300
C421        C  0.31271853  0.93949307  0.73422647     0.84600
O422        O  0.25320405  0.05235220  0.80201004    -0.67500
O423        O  0.23738863  0.91322151  0.79316574    -0.86800
C424        C  0.28147498  0.03932344  0.80574400     0.85400
C425        C  0.26424297  0.07009091  0.69576265     1.07000
H426        H  0.26562100  0.96919276  0.78489630     0.38800
O427        O  0.25256812  0.97107755  0.76484269    -1.09500
O428        O  0.18530178  0.98202883  0.74162154    -0.66100
Ni429      Ni  0.21627644  0.99680771  0.77678535     1.26300
O430        O  0.29386810  0.02338710  0.77987230    -0.66400
O431        O  0.20579872  0.95997107  0.80798277    -0.78700
C432        C  0.17890078  0.06210804  0.78681354     0.84800
O433        O  0.18261358  0.02912918  0.79127449    -0.65800
Ni434      Ni  0.24842617  0.92691838  0.74684415     1.27400
Ni435      Ni  0.27039999  0.00450762  0.73786383     1.26100
H436        H  0.21843813  0.02856815  0.72532888     0.39300
O437        O  0.83746722  0.79370263  0.51667946    -0.80600
O438        O  0.72310494  0.69104970  0.47997682    -0.65300
O439        O  0.78669861  0.75774423  0.50315041    -1.11900
C440        C  0.69508526  0.80097612  0.56164924     1.06300
O441        O  0.68200639  0.71228443  0.51068788    -0.78500
O442        O  0.69942452  0.80391672  0.48290555    -0.66100
Ni443      Ni  0.82652694  0.74508824  0.52195752     1.34900
C444        C  0.72283059  0.82301015  0.47669703     0.85000
O445        O  0.79097274  0.70321696  0.46145378    -0.79100
O446        O  0.83667028  0.73176372  0.47544908    -0.89300
C447        C  0.69347375  0.68966712  0.49018593     0.84600
O448        O  0.81890286  0.69636430  0.53296720    -0.67500
O449        O  0.67991384  0.77911859  0.54297679    -0.86800
C450        C  0.79405654  0.67942123  0.53963848     0.85400
C451        C  0.81995936  0.71344238  0.45455194     1.07000
H452        H  0.72799113  0.73721091  0.54049233     0.38800
O453        O  0.73089967  0.74924070  0.51983868    -1.09500
O454        O  0.74988138  0.81588834  0.49018541    -0.66100
Ni455      Ni  0.75877824  0.78529181  0.52916880     1.26300
O456        O  0.76711567  0.69074789  0.52890667    -0.66400
O457        O  0.72492701  0.80878336  0.55651926    -0.78700
C458        C  0.82216020  0.81957828  0.53036068     0.84800
O459        O  0.79230304  0.81784064  0.53889758    -0.65800
Ni460      Ni  0.69166109  0.75882984  0.49976401     1.27400
Ni461      Ni  0.75797541  0.72307519  0.49192734     1.26100
H462        H  0.79031314  0.77030237  0.48296042     0.39300
O463        O  0.95996063  0.73479884  0.33059938    -0.80600
O464        O  0.07351725  0.75566112  0.22645932    -0.65300
O465        O  0.00167361  0.74026253  0.28319927    -1.11900
C466        C  0.97081561  0.68624347  0.17995238     1.06300
O467        O  0.05496208  0.73458139  0.17695739    -0.78500
O468        O  0.96447229  0.76137625  0.18682953    -0.66100
Ni469      Ni  0.00380673  0.71730330  0.32376595     1.34900
C470        C  0.95169037  0.77890291  0.21072291     0.85000
O471        O  0.05627057  0.77350675  0.29637181    -0.79100
O472        O  0.02412476  0.75991016  0.34014823    -0.89300
C473        C  0.07716625  0.74850662  0.19456345     0.84600
O474        O  0.04589763  0.69429931  0.31999109    -0.67500
O475        O  0.99601502  0.70089296  0.16978098    -0.86800
C476        C  0.06832439  0.68978050  0.29894548     0.85400
C477        C  0.04603985  0.77833243  0.32699836     1.07000
H478        H  0.02470326  0.70028926  0.22223809     0.38800
O479        O  0.01493502  0.72306929  0.22514879    -1.09500
O480        O  0.95692538  0.76677026  0.23974302    -0.66100
Ni481      Ni  0.97665853  0.71946706  0.24932722     1.26300
O482        O  0.06569875  0.70501146  0.27074457    -0.66400
O483        O  0.95705585  0.69498484  0.20870234    -0.78700
C484        C  0.93608683  0.72736117  0.31126429     0.84800
O485        O  0.94042533  0.71640568  0.28032712    -0.65800
Ni486      Ni  0.00984962  0.74579191  0.18409979     1.27400
Ni487      Ni  0.03875315  0.74688902  0.25820815     1.26100
H488        H  0.99253092  0.76308931  0.28748173     0.39300
O489        O  0.41364487  0.98365239  0.00469517    -0.80600
O490        O  0.51900919  0.08666886  0.96113051    -0.65300
O491        O  0.46412061  0.01105688  0.97878831    -1.11900
C492        C  0.55379072  0.99041817  0.05304573     1.06300
O493        O  0.56453616  0.07102147  0.98986177    -0.78500
O494        O  0.55680807  0.97080884  0.97618323    -0.66100
Ni495      Ni  0.42657716  0.03029982  0.99329439     1.34900
C496        C  0.53411075  0.95022961  0.96917419     0.85000
O497        O  0.45230791  0.06447510  0.93623141    -0.79100
O498        O  0.41223554  0.02813807  0.94790461    -0.89300
C499        C  0.54765655  0.09377704  0.97328216     0.84600
O500        O  0.44389909  0.04242080  0.03648715    -0.67500
O501        O  0.56950626  0.01029420  0.03364952    -0.86800
C502        C  0.45529793  0.07269709  0.03424233     0.85400
C503        C  0.42352881  0.05176397  0.92957445     1.07000
H504        H  0.51835868  0.04411142  0.01944300     0.38800
O505        O  0.51731619  0.02912892  0.99994666    -1.09500
O506        O  0.50578161  0.95852738  0.97715852    -0.66100
Ni507      Ni  0.49200474  0.99210525  0.01130991     1.26300
O508        O  0.46998764  0.07958650  0.00682306    -0.66400
O509        O  0.52623333  0.97743504  0.04345846    -0.78700
C510        C  0.42889530  0.95782863  0.01828929     0.84800
O511        O  0.45986049  0.95766701  0.02378327    -0.65800
Ni512      Ni  0.55933741  0.02057650  0.98588773     1.27400
Ni513      Ni  0.48808597  0.04942880  0.96919484     1.26100
H514        H  0.46169164  0.99604095  0.95945083     0.39300
C515        C  0.26849654  0.76439590  0.30724398     0.80500
N516        N  0.26070790  0.78301499  0.27982473    -0.77800
C517        C  0.26647610  0.77005599  0.24890145     0.82900
N518        N  0.28078645  0.73841456  0.24581382    -0.77800
C519        C  0.28814844  0.71906290  0.27299753     0.83000
N520        N  0.28180390  0.73240271  0.30373336    -0.79500
N521        N  0.43524293  0.62358123  0.28037495    -0.36300
N522        N  0.45759293  0.59384743  0.34781224    -0.56900
N523        N  0.41709373  0.53549468  0.34605181    -0.36300
N524        N  0.36803287  0.57001340  0.27557764    -0.56900
C525        C  0.45035697  0.65067448  0.29376563     0.27200
C526        C  0.41425646  0.63616785  0.25725308     0.27200
C527        C  0.42798916  0.53402921  0.37848799     0.27200
C528        C  0.38771390  0.52086903  0.34223161     0.27200
C529        C  0.47812496  0.61821933  0.33882257     0.35900
C530        C  0.47263494  0.57452408  0.37146654     0.35900
C531        C  0.38699020  0.58276343  0.25243550     0.35900
C532        C  0.38197856  0.54007202  0.28512167     0.35900
C533        C  0.44120760  0.68059144  0.27714045    -0.21600
C534        C  0.41797643  0.67143199  0.25414538    -0.21600
C535        C  0.40505305  0.51662817  0.39596758    -0.21600
C536        C  0.37973729  0.50882625  0.37345349    -0.21600
C537        C  0.50627838  0.61466711  0.35708676    -0.22700
C538        C  0.50293768  0.58703257  0.37749076    -0.22700
C539        C  0.41218135  0.55967767  0.24575319    -0.22700
C540        C  0.40888317  0.53235934  0.26685604    -0.22700
C541        C  0.46806869  0.64936362  0.32376220    -0.18000
C542        C  0.38685260  0.61831736  0.24705545    -0.18000
C543        C  0.36931228  0.52098082  0.31069394    -0.18000
C544        C  0.45756712  0.54963069  0.39116634    -0.18000
H545        H  0.44830628  0.70663850  0.28317531     0.14900
H546        H  0.40332158  0.68905593  0.23930725     0.14900
H547        H  0.40582570  0.51117651  0.42238615     0.14900
H548        H  0.35791650  0.49626142  0.37961818     0.14900
H549        H  0.52635393  0.63161857  0.35729298     0.13200
H550        H  0.52002876  0.57890448  0.39636770     0.13200
H551        H  0.43237812  0.56380067  0.23005923     0.13200
H552        H  0.42458547  0.51016012  0.26920200     0.13200
H553        H  0.43605663  0.59881720  0.29012636     0.26400
H554        H  0.42938098  0.54638389  0.32671900     0.26400
C555        C  0.47581353  0.95062920  0.27154027     0.80500
N556        N  0.49119908  0.91980895  0.27598333    -0.77800
C557        C  0.50393771  0.91161213  0.30610895     0.82900
N558        N  0.50156179  0.93463232  0.33191530    -0.77800
C559        C  0.48574696  0.96519701  0.32755453     0.83000
N560        N  0.47260118  0.97310078  0.29743259    -0.79500
N561        N  0.62433881  0.83360226  0.39208503    -0.36300
N562        N  0.66451565  0.86959190  0.34430679    -0.56900
N563        N  0.70541294  0.88697189  0.40301692    -0.36300
N564        N  0.66074721  0.85187577  0.44430315    -0.56900
C565        C  0.61902660  0.81882278  0.36221130     0.27200
C566        C  0.61422808  0.81232991  0.41563337     0.27200
C567        C  0.72177488  0.89558595  0.37538856     0.27200
C568        C  0.72469339  0.86857415  0.42502147     0.27200
C569        C  0.63468788  0.86833793  0.33081378     0.35900
C570        C  0.67555507  0.90118920  0.33743780     0.35900
C571        C  0.63524753  0.84490309  0.46220795     0.35900
C572        C  0.68236605  0.86616711  0.46426815     0.35900
C573        C  0.60577648  0.78674427  0.36655081    -0.21600
C574        C  0.60262404  0.78269396  0.40067174    -0.21600
C575        C  0.75310240  0.88338325  0.38010385    -0.21600
C576        C  0.75469712  0.86561529  0.41074098    -0.21600
C577        C  0.62659563  0.89959472  0.31591288    -0.22700
C578        C  0.65254240  0.92024476  0.31985740    -0.22700
C579        C  0.63976965  0.85537490  0.49489851    -0.22700
C580        C  0.66982389  0.86926819  0.49595420    -0.22700
C581        C  0.61430414  0.83995700  0.33449961    -0.18000
C582        C  0.61257533  0.82254466  0.44942599    -0.18000
C583        C  0.71397488  0.85668733  0.45745142    -0.18000
C584        C  0.70673319  0.91175275  0.34615077    -0.18000
H585        H  0.59618873  0.77006432  0.34715949     0.14900
H586        H  0.59168703  0.76145561  0.41283070     0.14900
H587        H  0.77238328  0.88545775  0.36266855     0.14900
H588        H  0.77567214  0.85279215  0.42145071     0.14900
H589        H  0.60394502  0.90765192  0.30483273     0.13200
H590        H  0.65355630  0.94681058  0.31206669     0.13200
H591        H  0.62499146  0.84999956  0.51600508     0.13200
H592        H  0.68304951  0.87623151  0.51777880     0.13200
H593        H  0.62977920  0.85955028  0.39575477     0.26400
H594        H  0.68140542  0.89399084  0.40621387     0.26400
N595        N  0.36026724  0.88674332  0.14326176    -0.36300
N596        N  0.39892415  0.92185900  0.09638306    -0.56900
N597        N  0.36479667  0.88950174  0.03956032    -0.36300
N598        N  0.32870399  0.85156729  0.08931146    -0.56900
C599        C  0.38537657  0.89582806  0.16230584     0.27200
C600        C  0.34682177  0.86005786  0.15813222     0.27200
C601        C  0.39009984  0.90385678  0.02413357     0.27200
C602        C  0.35325511  0.86199533  0.02118410     0.27200
C603        C  0.40364740  0.94003983  0.12512608     0.35900
C604        C  0.40599792  0.94320674  0.07149810     0.35900
C605        C  0.30773649  0.85000063  0.11430899     0.35900
C606        C  0.31120701  0.85165126  0.06087404     0.35900
C607        C  0.38855077  0.87422420  0.18953790    -0.21600
C608        C  0.36395057  0.85129895  0.18680199    -0.21600
C609        C  0.39422139  0.88561478  0.99422418    -0.21600
C610        C  0.37172948  0.85907478  0.99269954    -0.21600
C611        C  0.41351275  0.97291266  0.11882482    -0.22700
C612        C  0.41485216  0.97505671  0.08486381    -0.22700
C613        C  0.27693387  0.84828544  0.10196312    -0.22700
C614        C  0.27887003  0.85108656  0.06812176    -0.22700
C615        C  0.40236353  0.92573352  0.15694192    -0.18000
C616        C  0.31702325  0.84786716  0.14795303    -0.18000
C617        C  0.32510113  0.84246863  0.03016573    -0.18000
C618        C  0.40828596  0.93308353  0.03743171    -0.18000
H619        H  0.40590690  0.87574574  0.20979037     0.14900
H620        H  0.35842517  0.83161202  0.20451762     0.14900
H621        H  0.41180252  0.89059451  0.97554668     0.14900
H622        H  0.36879981  0.84054964  0.97245082     0.14900
H623        H  0.41990384  0.99280130  0.13681526     0.13200
H624        H  0.42242572  0.99734559  0.07171581     0.13200
H625        H  0.25554558  0.84532580  0.11605228     0.13200
H626        H  0.25875125  0.85115667  0.05082452     0.13200
H627        H  0.35072743  0.90039725  0.12299317     0.26400
H628        H  0.35506039  0.89911965  0.06168820     0.26400
C629        C  0.27103907  0.99184650  0.50832777     0.80500
N630        N  0.24949270  0.00306546  0.48525041    -0.77800
C631        C  0.22270372  0.98561980  0.47894651     0.82900
N632        N  0.21737331  0.95604183  0.49581033    -0.77800
C633        C  0.23875763  0.94508404  0.51961150     0.83000
N634        N  0.26594718  0.96264741  0.52510671    -0.79500
C635        C  0.47181743  0.73748481  0.43905213     0.80500
N636        N  0.44799743  0.73273864  0.46118810    -0.77800
C637        C  0.44971313  0.74703292  0.49234014     0.82900
N638        N  0.47506133  0.76607183  0.50162035    -0.77800
C639        C  0.49829037  0.77109872  0.47955088     0.83000
N640        N  0.49654977  0.75692569  0.44861671    -0.79500
N641        N  0.33673726  0.82632331  0.61726111    -0.36300
N642        N  0.39552910  0.81536149  0.65397290    -0.56900
N643        N  0.37874464  0.87484855  0.69913579    -0.36300
N644        N  0.31753761  0.88187488  0.66164948    -0.56900
C645        C  0.34701130  0.79522457  0.60561446     0.27200
C646        C  0.30532698  0.82936828  0.61000251     0.27200
C647        C  0.40147108  0.85608646  0.71676672     0.27200
C648        C  0.35975207  0.89381039  0.72065706     0.27200
C649        C  0.40251017  0.80136165  0.62379497     0.35900
C650        C  0.42350293  0.82447850  0.66813060     0.35900
C651        C  0.29715696  0.88695839  0.63532149     0.35900
C652        C  0.31818836  0.91216563  0.67894747     0.35900
C653        C  0.32166456  0.77766592  0.59145361    -0.21600
C654        C  0.29513538  0.79946328  0.59415410    -0.21600
C655        C  0.39717136  0.86395121  0.75040499    -0.21600
C656        C  0.37125073  0.88768541  0.75280811    -0.21600
C657        C  0.43510121  0.80198782  0.61851416    -0.22700
C658        C  0.44852538  0.81594516  0.64703005    -0.22700
C659        C  0.28528252  0.92063328  0.63566952    -0.22700
C660        C  0.29737841  0.93588390  0.66387196    -0.22700
C661        C  0.37951301  0.78592758  0.60262197    -0.18000
C662        C  0.28781549  0.86078392  0.61230761    -0.18000
C663        C  0.33301211  0.91657582  0.71082199    -0.18000
C664        C  0.42622460  0.83353779  0.70208253    -0.18000
H665        H  0.32266022  0.75276575  0.57877268     0.14900
H666        H  0.27152531  0.79476172  0.58400068     0.14900
H667        H  0.41140314  0.85399098  0.77109255     0.14900
H668        H  0.36188846  0.89895927  0.77566230     0.14900
H669        H  0.44796810  0.79284986  0.59674105     0.13200
H670        H  0.47376352  0.81936351  0.65159259     0.13200
H671        H  0.26902428  0.93311044  0.61813187     0.13200
H672        H  0.29061192  0.96135658  0.67249046     0.13200
H673        H  0.35122595  0.84612338  0.62577055     0.26400
H674        H  0.37670202  0.87533032  0.67317936     0.26400
N675        N  0.40720698  0.09563451  0.43973123    -0.36300
N676        N  0.43085225  0.13800982  0.38746498    -0.56900
N677        N  0.37285624  0.18497629  0.39582676    -0.36300
N678        N  0.35305761  0.14049387  0.45140807    -0.56900
C679        C  0.43658517  0.08159753  0.43581326     0.27200
C680        C  0.39470411  0.08096154  0.46640398     0.27200
C681        C  0.39202852  0.20316118  0.37536606     0.27200
C682        C  0.35354612  0.20692503  0.41449129     0.27200
C683        C  0.44393918  0.10629868  0.38078514     0.35900
C684        C  0.42524530  0.15249504  0.35744585     0.35900
C685        C  0.34211730  0.10990114  0.46111349     0.35900
C686        C  0.32720056  0.16023573  0.44328311     0.35900
C687        C  0.44361084  0.05868741  0.46136585    -0.21600
C688        C  0.41676145  0.05803306  0.48066205    -0.21600
C689        C  0.38405977  0.23795080  0.38039960    -0.21600
C690        C  0.36034506  0.24032430  0.40508111    -0.21600
C691        C  0.44708999  0.10095711  0.34670537    -0.22700
C692        C  0.43484850  0.13002118  0.33190776    -0.22700
C693        C  0.30904482  0.11019135  0.45963473    -0.22700
C694        C  0.29952459  0.14223258  0.44829811    -0.22700
C695        C  0.45172545  0.08134424  0.40502003    -0.18000
C696        C  0.36203531  0.08249691  0.47252189    -0.18000
C697        C  0.32918984  0.19582216  0.43771304    -0.18000
C698        C  0.41588977  0.18740086  0.35297173    -0.18000
H699        H  0.46434770  0.04146009  0.46355732     0.14900
H700        H  0.41284750  0.04048872  0.50087041     0.14900
H701        H  0.39444851  0.25943820  0.36798362     0.14900
H702        H  0.34900255  0.26394335  0.41441959     0.14900
H703        H  0.45655671  0.07822020  0.33376970     0.13200
H704        H  0.43353276  0.13444310  0.30528794     0.13200
H705        H  0.29347365  0.08958797  0.46609779     0.13200
H706        H  0.27504221  0.15097744  0.44409231     0.13200
H707        H  0.39426570  0.10964775  0.42193165     0.26400
H708        H  0.37251246  0.15812350  0.39623739     0.26400
N709        N  0.15441553  0.88640637  0.38009829    -0.36300
N710        N  0.11772423  0.82411978  0.36144597    -0.56900
N711        N  0.06086129  0.85473507  0.39040770    -0.36300
N712        N  0.09265768  0.92242971  0.39994371    -0.56900
C713        C  0.17116792  0.86676473  0.35867932     0.27200
C714        C  0.15475539  0.91914765  0.36900591     0.27200
C715        C  0.04680317  0.83046291  0.37025927     0.27200
C716        C  0.03826480  0.87532049  0.40596448     0.27200
C717        C  0.14766290  0.81207524  0.35524116     0.35900
C718        C  0.09740559  0.80121733  0.34809551     0.35900
C719        C  0.11933098  0.93804413  0.41037272     0.35900
C720        C  0.07757890  0.91473831  0.42802699     0.35900
C721        C  0.18131560  0.88643531  0.33244340    -0.21600
C722        C  0.17074046  0.91998334  0.33903106    -0.21600
C723        C  0.01389195  0.83568878  0.37363748    -0.21600
C724        C  0.00858652  0.86345230  0.39625082    -0.21600
C725        C  0.14684753  0.78150276  0.33721116    -0.22700
C726        C  0.11515667  0.77472618  0.33238468    -0.22700
C727        C  0.12223198  0.93823923  0.44490677    -0.22700
C728        C  0.09496101  0.92432250  0.45623000    -0.22700
C729        C  0.17508090  0.83113348  0.36215289    -0.18000
C730        C  0.14283490  0.94720051  0.38819215    -0.18000
C731        C  0.04614791  0.90429004  0.42784660    -0.18000
C732        C  0.06332799  0.80438527  0.34922593    -0.18000
H733        H  0.19430035  0.87738949  0.31068723     0.14900
H734        H  0.17431327  0.94225205  0.32368027     0.14900
H735        H  0.99546401  0.82112859  0.36108138     0.14900
H736        H  0.98560652  0.87407139  0.40387879     0.14900
H737        H  0.16673468  0.76684963  0.32663881     0.13200
H738        H  0.10672170  0.75275524  0.31829062     0.13200
H739        H  0.14213355  0.94651762  0.46025290     0.13200
H740        H  0.08853175  0.92132388  0.48207582     0.13200
H741        H  0.14467071  0.87762027  0.40216821     0.26400
H742        H  0.08514931  0.85775072  0.39424189     0.26400
O743        O  0.80740655  0.98903374  0.32871049    -0.80600
O744        O  0.69070127  0.95877839  0.22132810    -0.65300
O745        O  0.76667722  0.97214275  0.27815921    -1.11900
C746        C  0.79279720  0.02262341  0.17421242     1.06300
O747        O  0.70935917  0.97464525  0.17131710    -0.78500
O748        O  0.79579033  0.93591413  0.18464596    -0.66100
Ni749      Ni  0.76140701  0.99887280  0.31816611     1.34900
C750        C  0.81840974  0.93149832  0.20626698     0.85000
O751        O  0.70937975  0.94440905  0.29344236    -0.79100
O752        O  0.74539900  0.95598448  0.33577986    -0.89300
C753        C  0.68615359  0.96481184  0.18929064     0.84600
O754        O  0.71617513  0.01485265  0.31199481    -0.67500
O755        O  0.77201623  0.00109564  0.16231846    -0.86800
C756        C  0.70271147  0.02784400  0.28590655     0.85400
C757        C  0.72176578  0.93861598  0.32361999     1.07000
H758        H  0.74304322  0.00689532  0.21375733     0.38800
O759        O  0.75252466  0.98452885  0.21895917    -1.09500
O760        O  0.81714204  0.94986986  0.23341093    -0.66100
Ni761      Ni  0.79032100  0.99339805  0.24435047     1.26300
O762        O  0.70774665  0.01210952  0.25858005    -0.66400
O763        O  0.80635677  0.01922293  0.20429177    -0.78700
C764        C  0.83072299  0.99816222  0.31020658     0.84800
O765        O  0.82578209  0.00309172  0.27769848    -0.65800
Ni766      Ni  0.75361771  0.95869561  0.17947670     1.27400
Ni767      Ni  0.72811427  0.96558281  0.25276913     1.26100
H768        H  0.77662414  0.94987912  0.28297579     0.39300
O769        O  0.76992804  0.24183659  0.91608628    -0.80600
O770        O  0.68581758  0.29024743  0.03623110    -0.65300
O771        O  0.74972614  0.26796519  0.97165360    -1.11900
C772        C  0.77180206  0.18240492  0.05778509     1.06300
O773        O  0.71089049  0.26509844  0.08150694    -0.78500
O774        O  0.76379901  0.29604847  0.04955840    -0.66100
Ni775      Ni  0.72835560  0.25836464  0.93265406     1.34900
C776        C  0.79146217  0.29365123  0.03609063     0.85000
O777        O  0.70406153  0.31892740  0.96661679    -0.79100
O778        O  0.73409628  0.30557195  0.92102688    -0.89300
C779        C  0.68671779  0.28173589  0.06792888     0.84600
O780        O  0.71322848  0.21442899  0.94761572    -0.67500
O781        O  0.75277250  0.20227800  0.07526087    -0.86800
C782        C  0.68672377  0.21988579  0.96298522     0.85400
C783        C  0.71507333  0.32692742  0.93636778     1.07000
H784        H  0.71925034  0.22300081  0.02606958     0.38800
O785        O  0.73376331  0.24187798  0.02492825    -1.09500
O786        O  0.79787061  0.26617003  0.01793517    -0.66100
Ni787      Ni  0.76781530  0.23132150  0.99687131     1.26300
O788        O  0.68424768  0.24791115  0.98087806    -0.66400
O789        O  0.78216990  0.19289959  0.02846876    -0.78700
C790        C  0.79543589  0.22706413  0.92883026     0.84800
O791        O  0.79899481  0.22094587  0.96083175    -0.65800
Ni792      Ni  0.75364533  0.25115537  0.06468198     1.27400
Ni793      Ni  0.71677507  0.28000558  0.00005939     1.26100
H794        H  0.76444668  0.28656279  0.96971220     0.39300
C795        C  0.21932921  0.25320832  0.76263166     0.80500
N796        N  0.24865328  0.26422278  0.75394787    -0.77800
C797        C  0.25105390  0.29443607  0.73755565     0.82900
N798        N  0.22424628  0.31339871  0.73046132    -0.77800
C799        C  0.19506836  0.30281148  0.73868269     0.83000
N800        N  0.19274976  0.27292642  0.75568533    -0.79500
C801        C  0.47153010  0.30793479  0.00918177     0.80500
N802        N  0.50049988  0.29439723  0.00133956    -0.77800
C803        C  0.50327192  0.26720439  0.97996173     0.82900
N804        N  0.47661574  0.25202624  0.96833563    -0.77800
C805        C  0.44732805  0.26506625  0.97618788     0.83000
N806        N  0.44486636  0.29334417  0.99631487    -0.79500
C807        C  0.48083568  0.51729027  0.74009219     0.80500
N808        N  0.50096962  0.53944661  0.75565536    -0.77800
C809        C  0.52586934  0.52683306  0.77468190     0.82900
N810        N  0.52972864  0.49220795  0.77823556    -0.77800
C811        C  0.50965137  0.47025189  0.76251982     0.83000
N812        N  0.48539792  0.48273889  0.74336026    -0.79500
C813        C  0.25541427  0.45591784  0.92211073     0.80500
N814        N  0.26128889  0.44569043  0.95393007    -0.77800
C815        C  0.29180521  0.43830202  0.96407426     0.82900
N816        N  0.31617161  0.44275864  0.94281302    -0.77800
C817        C  0.31051222  0.45383690  0.91119599     0.83000
N818        N  0.28003299  0.46049750  0.90144736    -0.79500
N819        N  0.43068024  0.59578346  0.87053765    -0.36300
N820        N  0.37104808  0.62649832  0.89747461    -0.56900
N821        N  0.39850769  0.69479034  0.89403709    -0.36300
N822        N  0.45579352  0.66144073  0.86233598    -0.56900
C823        C  0.41090607  0.56954731  0.86509289     0.27200
C824        C  0.45799010  0.58826288  0.85417166     0.27200
C825        C  0.36822569  0.70275234  0.90408311     0.27200
C826        C  0.40957816  0.72044506  0.87418209     0.27200
C827        C  0.36556562  0.59227021  0.89973611     0.35900
C828        C  0.35050480  0.64341030  0.91838896     0.35900
C829        C  0.48290199  0.64278845  0.86697752     0.35900
C830        C  0.46193638  0.69367555  0.87225316     0.35900
C831        C  0.42536689  0.54518750  0.84395695    -0.21600
C832        C  0.45522501  0.55705782  0.83704192    -0.21600
C833        C  0.35996985  0.73508434  0.89122308    -0.21600
C834        C  0.38548403  0.74566649  0.87169282    -0.21600
C835        C  0.34101931  0.58733296  0.92169909    -0.22700
C836        C  0.33176212  0.61943175  0.93376755    -0.22700
C837        C  0.50705599  0.66313595  0.87928020    -0.22700
C838        C  0.49345953  0.69576080  0.88316014    -0.22700
C839        C  0.38223352  0.56525722  0.88221491    -0.18000
C840        C  0.48560958  0.60832291  0.85702264    -0.18000
C841        C  0.44199422  0.72093753  0.86156026    -0.18000
C842        C  0.34780576  0.68013904  0.92258396    -0.18000
H843        H  0.41591475  0.52078709  0.83549072     0.14900
H844        H  0.47293165  0.54377945  0.82183978     0.14900
H845        H  0.33733323  0.74889999  0.89424716     0.14900
H846        H  0.38648835  0.76962231  0.85826256     0.14900
H847        H  0.33118244  0.56304025  0.92885274     0.13200
H848        H  0.31319878  0.62389906  0.95181947     0.13200
H849        H  0.53161725  0.65524568  0.88442899     0.13200
H850        H  0.50552865  0.71884918  0.89112792     0.13200
H851        H  0.42677969  0.61650235  0.88676489     0.26400
H852        H  0.41125688  0.67264009  0.90136528     0.26400
N853        N  0.60476157  0.34324776  0.84142888    -0.36300
N854        N  0.64523631  0.38527735  0.80102001    -0.56900
N855        N  0.68993904  0.38978493  0.86094670    -0.36300
N856        N  0.64743763  0.34434093  0.89702290    -0.56900
C857        C  0.59152570  0.33928321  0.81091340     0.27200
C858        C  0.59277086  0.31913322  0.86106397     0.27200
C859        C  0.70691644  0.40365964  0.83541822     0.27200
C860        C  0.70984098  0.37299184  0.88393540     0.27200
C861        C  0.61546281  0.39012368  0.78737439     0.35900
C862        C  0.66020256  0.41554791  0.79734208     0.35900
C863        C  0.61989176  0.33862258  0.91203943     0.35900
C864        C  0.66664200  0.35839423  0.92013956     0.35900
C865        C  0.57102764  0.31188462  0.81080090    -0.21600
C866        C  0.57251188  0.29838612  0.84244649    -0.21600
C867        C  0.73898305  0.39646325  0.84295426    -0.21600
C868        C  0.74075057  0.37677997  0.87253681    -0.21600
C869        C  0.61179185  0.42322549  0.77507549    -0.22700
C870        C  0.63972332  0.43923018  0.78158259    -0.22700
C871        C  0.62131186  0.34892549  0.94532430    -0.22700
C872        C  0.65140844  0.36139914  0.95055702    -0.22700
C873        C  0.59068164  0.36587536  0.78770224    -0.18000
C874        C  0.59567751  0.32030735  0.89612751    -0.18000
C875        C  0.69929139  0.35687165  0.91530645    -0.18000
C876        C  0.69268464  0.42164883  0.80602002    -0.18000
H877        H  0.55507499  0.30410291  0.79070190     0.14900
H878        H  0.55812209  0.27783992  0.85144977     0.14900
H879        H  0.75908436  0.40374692  0.82825404     0.14900
H880        H  0.76247457  0.36734493  0.88471835     0.14900
H881        H  0.59086961  0.43540868  0.76369614     0.13200
H882        H  0.64393411  0.46581164  0.77588217     0.13200
H883        H  0.60319997  0.34638038  0.96402006     0.13200
H884        H  0.66163301  0.36963502  0.97426875     0.13200
H885        H  0.61735173  0.36462987  0.84959606     0.26400
H886        H  0.66521240  0.39252635  0.86268584     0.26400
N887        N  0.36236950  0.42450467  0.65614670    -0.36300
N888        N  0.39474121  0.45001904  0.60101345    -0.56900
N889        N  0.36459477  0.40185563  0.55320278    -0.53900
N890        N  0.33596945  0.37245327  0.61044005    -0.56900
C891        C  0.38407422  0.44586353  0.66936719     0.27200
C892        C  0.36085256  0.39729200  0.67634914     0.27200
C893        C  0.39240585  0.40881400  0.53733390     0.27200
C894        C  0.35105919  0.37340637  0.53941767     0.27200
C895        C  0.38987404  0.47864370  0.61982704     0.35900
C896        C  0.39929934  0.46080400  0.56991601     0.35900
C897        C  0.32304505  0.36612152  0.64053362     0.35900
C898        C  0.31516687  0.36097585  0.58664455     0.35900
C899        C  0.39705577  0.43198988  0.69845149    -0.21600
C900        C  0.38220058  0.40096104  0.70288389    -0.21600
C901        C  0.39641783  0.38425349  0.51202868    -0.21600
C902        C  0.37014416  0.36249729  0.51285080    -0.21600
C903        C  0.39112052  0.50770131  0.60057818    -0.22700
C904        C  0.39725658  0.49651053  0.56857690    -0.22700
C905        C  0.29407847  0.35062465  0.63622964    -0.22700
C906        C  0.28895815  0.34733437  0.60261048    -0.22700
C907        C  0.39097159  0.47751884  0.65475528    -0.18000
C908        C  0.33822345  0.37165037  0.67197589    -0.18000
C909        C  0.32220506  0.35821381  0.55159436    -0.18000
C910        C  0.41170797  0.43840120  0.54549584    -0.18000
H911        H  0.41532236  0.44283632  0.71453872     0.14900
H912        H  0.38625484  0.38341104  0.72338680     0.14900
H913        H  0.41559197  0.38261351  0.49425538     0.14900
H914        H  0.36627334  0.34070942  0.49621679     0.14900
H915        H  0.39000512  0.53381872  0.60953711     0.13200
H916        H  0.40147258  0.51256457  0.54730236     0.13200
H917        H  0.27824224  0.34217998  0.65536908     0.13200
H918        H  0.26814442  0.33500285  0.59264095     0.13200
H919        H  0.34789271  0.42953544  0.63522784     0.26400
H920        H  0.35432752  0.41646799  0.57248288     0.26400
N921        N  0.38993846  0.41419822  0.12066675    -0.36300
N922        N  0.42385058  0.36408362  0.16591474    -0.56900
N923        N  0.36384574  0.36290235  0.20210306    -0.36300
N924        N  0.33398982  0.41826274  0.15552754    -0.56900
C925        C  0.42081851  0.42002864  0.11561193     0.27200
C926        C  0.37235386  0.43823346  0.10405624     0.27200
C927        C  0.38360649  0.34123048  0.22075239     0.27200
C928        C  0.34140917  0.38051765  0.22141185     0.27200
C929        C  0.43994532  0.36348634  0.13665222     0.35900
C930        C  0.42395019  0.33089783  0.17669333     0.35900
C931        C  0.32209644  0.42040220  0.12430401     0.35900
C932        C  0.31210840  0.40279792  0.17330236     0.35900
C933        C  0.42305173  0.44982621  0.09677246    -0.21600
C934        C  0.39213603  0.46090754  0.08880617    -0.21600
C935        C  0.37288193  0.34469098  0.25342943    -0.21600
C936        C  0.34727351  0.36965289  0.25397082    -0.21600
C937        C  0.45014417  0.32990166  0.12904807    -0.22700
C938        C  0.43990436  0.30950514  0.15403417    -0.22700
C939        C  0.29169880  0.40733845  0.12223533    -0.22700
C940        C  0.28501409  0.39668076  0.15398365    -0.22700
C941        C  0.44318874  0.39223991  0.11518358    -0.18000
C942        C  0.33938406  0.43488666  0.09883750    -0.18000
C943        C  0.31464454  0.40243806  0.20779588    -0.18000
C944        C  0.41077334  0.31987888  0.20729861    -0.18000
H945        H  0.44448895  0.45933436  0.08583060     0.14900
H946        H  0.38514311  0.48153547  0.07204176     0.14900
H947        H  0.38279829  0.33126485  0.27488013     0.14900
H948        H  0.33365337  0.37748987  0.27567075     0.14900
H949        H  0.46247324  0.32040584  0.10711222     0.13200
H950        H  0.44316958  0.28177488  0.15473485     0.13200
H951        H  0.27600586  0.40625667  0.10052904     0.13200
H952        H  0.26282367  0.38621646  0.16214965     0.13200
H953        H  0.38109162  0.39133813  0.12968576     0.26400
H954        H  0.36518715  0.36500162  0.17635105     0.26400
N955        N  0.31544572  0.16949633  0.87947049    -0.36300
N956        N  0.28883799  0.10862902  0.85379666    -0.56900
N957        N  0.34737023  0.06647646  0.87290640    -0.36300
N958        N  0.37775291  0.12906430  0.89283174    -0.56900
C959        C  0.28954039  0.18157851  0.86226583     0.27200
C960        C  0.33753424  0.19377989  0.87829934     0.27200
C961        C  0.33164621  0.04375307  0.85212150     0.27200
C962        C  0.37587980  0.05257773  0.88433500     0.27200
C963        C  0.26272011  0.12751632  0.86220673     0.35900
C964        C  0.28153374  0.07544977  0.85664103     0.35900
C965        C  0.38231423  0.16099707  0.90595714     0.35900
C966        C  0.39711493  0.10700088  0.91050746     0.35900
C967        C  0.29528499  0.21425902  0.85032293    -0.21600
C968        C  0.32560672  0.22219602  0.86101870    -0.21600
C969        C  0.35037346  0.01362371  0.85116177    -0.21600
C970        C  0.37775513  0.01894386  0.87151071    -0.21600
C971        C  0.23774038  0.10653092  0.86933226    -0.22700
C972        C  0.25004444  0.07313895  0.86656436    -0.22700
C973        C  0.40514024  0.15944702  0.93125768    -0.22700
C974        C  0.41400677  0.12566100  0.93457321    -0.22700
C975        C  0.26126574  0.16307799  0.85760173    -0.18000
C976        C  0.36678433  0.19199497  0.89540410    -0.18000
C977        C  0.39930065  0.07030919  0.90589731    -0.18000
C978        C  0.29904819  0.04976860  0.83917013    -0.18000
H979        H  0.27953021  0.23074708  0.83551895     0.14900
H980        H  0.33760893  0.24602285  0.85653076     0.14900
H981        H  0.34415253  0.98962653  0.83886014     0.14900
H982        H  0.39692810  0.00017687  0.87606780     0.14900
H983        H  0.21336735  0.11442199  0.87490452     0.13200
H984        H  0.23695675  0.04968629  0.86873327     0.13200
H985        H  0.41420061  0.18025063  0.94662645     0.13200
H986        H  0.43050804  0.11679893  0.95371433     0.13200
H987        H  0.31763633  0.14655615  0.89271268     0.26400
H988        H  0.33821015  0.09055530  0.87991944     0.26400
N989        N  0.11642242  0.46119181  0.79649457    -0.36300
N990        N  0.06241040  0.39145229  0.76249389    -0.56900
N991        N  0.03394732  0.42056154  0.84820362    -0.36300
N992        N  0.08646329  0.46364515  0.86508397    -0.56900
C993        C  0.12777001  0.44314174  0.76980719     0.27200
C994        C  0.14169333  0.46786537  0.81635106     0.27200
C995        C  0.02140823  0.39039270  0.83598046     0.27200
C996        C  0.02890874  0.42462134  0.88178695     0.27200
C997        C  0.07613486  0.42018819  0.75285597     0.35900
C998        C  0.03543425  0.40102166  0.77777608     0.35900
C999        C  0.11072351  0.48613515  0.86596675     0.35900
C1000       C  0.06799288  0.47166092  0.89177663     0.35900
C1001       C  0.16090222  0.44127418  0.77141630    -0.21600
C1002       C  0.16965944  0.45624730  0.80121401    -0.21600
C1003       C  0.00790787  0.37442202  0.86298621    -0.21600
C1004       C  0.01184301  0.39620235  0.89136590    -0.21600
C1005       C  0.05571602  0.44858267  0.75822343    -0.22700
C1006       C  0.02970177  0.43628787  0.77470289    -0.22700
C1007       C  0.10824441  0.50791830  0.89325648    -0.22700
C1008       C  0.08162465  0.49866306  0.90936294    -0.22700
C1009       C  0.10944202  0.41971632  0.75102921    -0.18000
C1010       C  0.13957496  0.48088865  0.84913773    -0.18000
C1011       C  0.04131381  0.45276921  0.90287518    -0.18000
C1012       C  0.02318831  0.37860757  0.80093657    -0.18000
H1013       H  0.17680610  0.42685722  0.75492272     0.14900
H1014       H  0.19369822  0.45623209  0.81155464     0.14900
H1015       H  0.99605971  0.34997659  0.86233630     0.14900
H1016       H  0.00416852  0.39089248  0.91638793     0.14900
H1017       H  0.06093652  0.47549300  0.75475592     0.13200
H1018       H  0.01077688  0.45174670  0.78615560     0.13200
H1019       H  0.12525838  0.52668188  0.90199672     0.13200
H1020       H  0.07458142  0.50938769  0.93268700     0.13200
H1021       H  0.09278863  0.46497160  0.80351661     0.26400
H1022       H  0.04591162  0.43795956  0.83395391     0.26400
C1023       C  0.71174365  0.75138329  0.19476518     0.80500
N1024       N  0.71109757  0.74087145  0.22666361    -0.77800
C1025       C  0.73826454  0.73038274  0.24272984     0.82900
N1026       N  0.76660411  0.73076828  0.22709943    -0.77800
C1027       C  0.76756955  0.74234568  0.19551177     0.83000
N1028       N  0.74027605  0.75218218  0.17934719    -0.79500
N1029       N  0.68816553  0.60769284  0.37061721    -0.36300
N1030       N  0.69774081  0.65749178  0.41852776    -0.56900
N1031       N  0.62973228  0.62866987  0.44995675    -0.36300
N1032       N  0.63121874  0.57399142  0.40213498    -0.56900
C1033       C  0.71514685  0.62238259  0.36047179     0.27200
C1034       C  0.68456561  0.57881633  0.35264288     0.27200
C1035       C  0.64562270  0.64640355  0.47456759     0.27200
C1036       C  0.60834315  0.60723820  0.46354321     0.27200
C1037       C  0.70379175  0.67464047  0.39063844     0.35900
C1038       C  0.67663909  0.67719333  0.43512056     0.35900
C1039       C  0.63195498  0.55934698  0.37126953     0.35900
C1040       C  0.60162979  0.56842121  0.41401949     0.35900
C1041       C  0.72985157  0.60112920  0.33683476    -0.21600
C1042       C  0.71036949  0.57354658  0.33174288    -0.21600
C1043       C  0.63350986  0.63671442  0.50493677    -0.21600
C1044       C  0.60962297  0.61266174  0.49798027    -0.21600
C1045       C  0.68843096  0.70680164  0.39060074    -0.22700
C1046       C  0.67144945  0.70867288  0.41969199    -0.22700
C1047       C  0.60377055  0.54291427  0.36417953    -0.22700
C1048       C  0.58458297  0.54868632  0.39088817    -0.22700
C1049       C  0.71944423  0.65829520  0.36414410    -0.18000
C1050       C  0.65438544  0.56605131  0.34654219    -0.18000
C1051       C  0.58969606  0.58206040  0.44487603    -0.18000
C1052       C  0.67047584  0.67039231  0.46791179    -0.18000
H1053       H  0.74970282  0.60734945  0.32145919     0.14900
H1054       H  0.71312054  0.55418436  0.31219122     0.14900
H1055       H  0.64095754  0.64591809  0.52941137     0.14900
H1056       H  0.59594627  0.59948595  0.51631566     0.14900
H1057       H  0.68829067  0.72598665  0.37125011     0.13200
H1058       H  0.65711840  0.73048702  0.42849910     0.13200
H1059       H  0.59701034  0.52989212  0.34111002     0.13200
H1060       H  0.56032930  0.54030754  0.39146784     0.13200
H1061       H  0.66950915  0.61965765  0.38365788     0.26400
H1062       H  0.63342295  0.63146431  0.42452958     0.26400
C1063       C  0.73704256  0.49775247  0.07244772     0.80500
N1064       N  0.75783462  0.52398241  0.07047118    -0.77800
C1065       C  0.76539788  0.53640094  0.03991244     0.82900
N1066       N  0.75149631  0.52278174  0.01206432    -0.77800
C1067       C  0.73056406  0.49685761  0.01408836     0.83000
N1068       N  0.72356046  0.48460310  0.04432475    -0.79500
C1069       C  0.47967187  0.78171013  0.03361763     0.80500
N1070       N  0.51025675  0.76829504  0.03303979    -0.77800
C1071       C  0.51618121  0.73700181  0.01812301     0.82900
N1072       N  0.49163986  0.71994120  0.00405567    -0.77800
C1073       C  0.46124507  0.73259710  0.00532483     0.83000
N1074       N  0.45534712  0.76363532  0.02020228    -0.79500
C1075       C  0.56656514  0.53965298  0.25462526     0.80500
N1076       N  0.55878964  0.51008047  0.27025714    -0.77800
C1077       C  0.53210397  0.49315185  0.26078955     0.82900
N1078       N  0.51440935  0.50559462  0.23478930    -0.77800
C1079       C  0.52253375  0.53443027  0.21882888     0.83000
N1080       N  0.54842621  0.55191784  0.22896888    -0.79500
N1081       N  0.40669855  0.57539887  0.06697965    -0.36300
N1082       N  0.34811825  0.62417189  0.01342580    -0.56900
N1083       N  0.31091554  0.58920730  0.09210980    -0.36300
N1084       N  0.36649518  0.56222538  0.12668212    -0.56900
C1085       C  0.41950007  0.59316008  0.04191542     0.27200
C1086       C  0.42904151  0.57319197  0.09146284     0.27200
C1087       C  0.29269633  0.61415085  0.07621943     0.27200
C1088       C  0.29718465  0.57967975  0.12114587     0.27200
C1089       C  0.37025565  0.59900691  0.00896368     0.35900
C1090       C  0.32191236  0.60923505  0.02381408     0.35900
C1091       C  0.39528904  0.54741839  0.13443281     0.35900
C1092       C  0.34438230  0.54546067  0.14413148     0.35900
C1093       C  0.45048767  0.60160657  0.05057196    -0.21600
C1094       C  0.45683525  0.58832261  0.08150384    -0.21600
C1095       C  0.26654940  0.62153936  0.09624432    -0.21600
C1096       C  0.26883384  0.59920093  0.12379167    -0.21600
C1097       C  0.35693153  0.56696449  0.01226154    -0.22700
C1098       C  0.32576707  0.57355552  0.02157262    -0.22700
C1099       C  0.39194824  0.52168660  0.15741974    -0.22700
C1100       C  0.35980400  0.51952049  0.16269534    -0.22700
C1101       C  0.40219595  0.60695822  0.01443120    -0.18000
C1102       C  0.42484403  0.55839708  0.12279085    -0.18000
C1103       C  0.31086652  0.55443565  0.14468891    -0.18000
C1104       C  0.30061364  0.62841557  0.04391183    -0.18000
H1105       H  0.46621664  0.61744904  0.03692679     0.14900
H1106       H  0.47879775  0.59124605  0.09576336     0.14900
H1107       H  0.24730012  0.64004112  0.09107136     0.14900
H1108       H  0.25201697  0.59830467  0.14395587     0.14900
H1109       H  0.36939043  0.54206207  0.01256531     0.13200
H1110       H  0.30934988  0.55464249  0.02978406     0.13200
H1111       H  0.41065218  0.50535435  0.16832057     0.13200
H1112       H  0.34945354  0.50036258  0.17820549     0.13200
H1113       H  0.38358298  0.56668196  0.06836881     0.26400
H1114       H  0.33223907  0.57896650  0.08308082     0.26400
N1115       N  0.60954753  0.39644502  0.16242601    -0.36300
N1116       N  0.65175798  0.35360913  0.11943216    -0.56900
N1117       N  0.61511754  0.29256831  0.13042531    -0.36300
N1118       N  0.57575154  0.33622929  0.17746707    -0.56900
C1119       C  0.63599059  0.41552907  0.16236975     0.27200
C1120       C  0.59220487  0.40682267  0.18918010     0.27200
C1121       C  0.64196233  0.27914374  0.11531323     0.27200
C1122       C  0.60280140  0.26942193  0.15228081     0.27200
C1123       C  0.66131035  0.38616290  0.11421807     0.35900
C1124       C  0.66118827  0.33442284  0.09259630     0.35900
C1125       C  0.55401904  0.36153768  0.18367715     0.35900
C1126       C  0.55938795  0.30882942  0.16726399     0.35900
C1127       C  0.63516100  0.43893265  0.18865746    -0.21600
C1128       C  0.60712032  0.43387503  0.20515549    -0.21600
C1129       C  0.64649978  0.24570025  0.12723311    -0.21600
C1130       C  0.62239205  0.23984765  0.15067159    -0.21600
C1131       C  0.67660629  0.38800267  0.08409811    -0.22700
C1132       C  0.67658230  0.35553474  0.07035358    -0.22700
C1133       C  0.52337647  0.35023593  0.17794240    -0.22700
C1134       C  0.52693383  0.31706173  0.16617330    -0.22700
C1135       C  0.65986999  0.41327755  0.13809486    -0.18000
C1136       C  0.56308497  0.39233397  0.19863557    -0.18000
C1137       C  0.57312444  0.27588785  0.17077194    -0.18000
C1138       C  0.66114105  0.29760740  0.09124206    -0.18000
H1139       H  0.65282637  0.45787372  0.19481158     0.14900
H1140       H  0.59829275  0.44872281  0.22614872     0.14900
H1141       H  0.66546268  0.22752801  0.12029416     0.14900
H1142       H  0.61931189  0.21625407  0.16421678     0.14900
H1143       H  0.68742282  0.41029272  0.07347343     0.13200
H1144       H  0.68801820  0.34894608  0.04710514     0.13200
H1145       H  0.50076458  0.36377347  0.18078194     0.13200
H1146       H  0.50770299  0.30033492  0.15903127     0.13200
H1147       H  0.60323358  0.37794067  0.14456314     0.26400
H1148       H  0.60492783  0.31677070  0.12505954     0.26400
N1149       N  0.62716608  0.61078024  0.92959152    -0.36300
N1150       N  0.64573988  0.57437714  0.86833548    -0.56900
N1151       N  0.62538325  0.63200847  0.82753560    -0.36300
N1152       N  0.61086864  0.67092156  0.89025021    -0.56900
C1153       C  0.64504207  0.58387847  0.94113598     0.27200
C1154       C  0.62743829  0.63584720  0.95347499     0.27200
C1155       C  0.64383146  0.61366416  0.80525146     0.27200
C1156       C  0.61973489  0.66438525  0.81594588     0.27200
C1157       C  0.64403169  0.54802706  0.88969531     0.35900
C1158       C  0.64674089  0.55991491  0.83757717     0.35900
C1159       C  0.59910863  0.68041678  0.92058511     0.35900
C1160       C  0.59503697  0.69093892  0.86762195     0.35900
C1161       C  0.65685835  0.59198048  0.97284324    -0.21600
C1162       C  0.64531820  0.62475464  0.98080436    -0.21600
C1163       C  0.64966247  0.63474634  0.77854745    -0.21600
C1164       C  0.63406331  0.66645500  0.78496284    -0.21600
C1165       C  0.64364190  0.51668273  0.87259037    -0.22700
C1166       C  0.64560947  0.52424834  0.83945344    -0.22700
C1167       C  0.57595660  0.70619652  0.91727973    -0.22700
C1168       C  0.57408004  0.71363571  0.88440121    -0.22700
C1169       C  0.64929064  0.55179001  0.92415545    -0.18000
C1170       C  0.60999977  0.66738128  0.95160471    -0.18000
C1171       C  0.60063809  0.69077337  0.83249516    -0.18000
C1172       C  0.65393340  0.57809406  0.80871321    -0.18000
H1173       H  0.67185974  0.57585394  0.98881085     0.14900
H1174       H  0.64956815  0.63882870  0.00394124     0.14900
H1175       H  0.66319477  0.62785332  0.75651649     0.14900
H1176       H  0.63383262  0.68851039  0.76873858     0.14900
H1177       H  0.64379360  0.49107124  0.88306572     0.13200
H1178       H  0.64732071  0.50566666  0.81915404     0.13200
H1179       H  0.56175377  0.71888831  0.93639918     0.13200
H1180       H  0.55910717  0.73460766  0.87521449     0.13200
H1181       H  0.61388665  0.61107185  0.90739197     0.26400
H1182       H  0.61567884  0.62278570  0.84923271     0.26400
N1183       N  0.87436430  0.69181397  0.05738585    -0.36300
N1184       N  0.90413814  0.59931950  0.03455189    -0.56900
N1185       N  0.94969568  0.62616467  0.10395735    -0.36300
N1186       N  0.90639005  0.70168613  0.13744628    -0.56900
C1187       C  0.85401046  0.67478473  0.03718140     0.27200
C1188       C  0.85799423  0.71783365  0.07248459     0.27200
C1189       C  0.96310723  0.59580029  0.09193597     0.27200
C1190       C  0.96332769  0.63591451  0.13370329     0.27200
C1191       C  0.89310192  0.62957496  0.02228913     0.35900
C1192       C  0.93584037  0.60260164  0.03892101     0.35900
C1193       C  0.89983992  0.72527405  0.11364814     0.35900
C1194       C  0.93706721  0.69210312  0.13298495     0.35900
C1195       C  0.82420285  0.69136681  0.03798733    -0.21600
C1196       C  0.82685424  0.71905262  0.06003911    -0.21600
C1197       C  0.98622272  0.58535570  0.11522971    -0.21600
C1198       C  0.98651742  0.61059452  0.14132356    -0.21600
C1199       C  0.91847395  0.65079382  0.01592625    -0.22700
C1200       C  0.94562116  0.63400086  0.02762728    -0.22700
C1201       C  0.92655307  0.73160395  0.09521850    -0.22700
C1202       C  0.95039516  0.71005650  0.10735406    -0.22700
C1203       C  0.86092150  0.64071309  0.02601698    -0.18000
C1204       C  0.86857656  0.73260167  0.10298928    -0.18000
C1205       C  0.95343278  0.66739057  0.15200490    -0.18000
C1206       C  0.95365842  0.58043339  0.05980106    -0.18000
H1207       H  0.80228169  0.68288216  0.02629547     0.14900
H1208       H  0.80732192  0.73551590  0.06887269     0.14900
H1209       H  0.00179425  0.56261907  0.11333822     0.14900
H1210       H  0.00202038  0.61022108  0.16319851     0.14900
H1211       H  0.91713325  0.67726265  0.00790257     0.13200
H1212       H  0.96924888  0.64446811  0.02991307     0.13200
H1213       H  0.92787374  0.74878518  0.07443606     0.13200
H1214       H  0.97446644  0.70721168  0.09823788     0.13200
H1215       H  0.89689981  0.68262705  0.06486685     0.26400
H1216       H  0.93123797  0.64017427  0.09219959     0.26400
N1217       N  0.56371490  0.86738460  0.13958992    -0.36300
N1218       N  0.62446024  0.90132240  0.16054518    -0.56900
N1219       N  0.60578732  0.96601982  0.13495042    -0.36300
N1220       N  0.54619468  0.93029371  0.11286149    -0.56900
C1221       C  0.58536901  0.84137000  0.13639818     0.27200
C1222       C  0.53875363  0.85943574  0.11961520     0.27200
C1223       C  0.63725894  0.97086708  0.14365404     0.27200
C1224       C  0.59781776  0.98147015  0.10501692     0.27200
C1225       C  0.62768280  0.86818194  0.17039260     0.35900
C1226       C  0.64518727  0.91973402  0.17957073     0.35900
C1227       C  0.51684166  0.91733528  0.11468143     0.35900
C1228       C  0.54234033  0.96404777  0.10676662     0.35900
C1229       C  0.57406956  0.81601381  0.11494980    -0.21600
C1230       C  0.54448920  0.82755424  0.10412553    -0.21600
C1231       C  0.64948249  0.99153767  0.11903668    -0.21600
C1232       C  0.62517007  0.99745273  0.09463232    -0.21600
C1233       C  0.65030609  0.86507540  0.19556547    -0.22700
C1234       C  0.66101733  0.89741889  0.20189091    -0.22700
C1235       C  0.49389270  0.94291417  0.10947118    -0.22700
C1236       C  0.50989029  0.97304917  0.10598674    -0.22700
C1237       C  0.61462031  0.83989347  0.15325272    -0.18000
C1238       C  0.51206427  0.88170412  0.11415312    -0.18000
C1239       C  0.56584766  0.98079265  0.08903517    -0.18000
C1240       C  0.65429871  0.95399753  0.17191897    -0.18000
H1241       H  0.58620775  0.79218866  0.10726587     0.14900
H1242       H  0.53001391  0.81462152  0.08563097     0.14900
H1243       H  0.67382456  0.99991286  0.11762143     0.14900
H1244       H  0.62751880  0.01197085  0.07199269     0.14900
H1245       H  0.65894908  0.84166636  0.20755879     0.13200
H1246       H  0.68015653  0.90195982  0.21950504     0.13200
H1247       H  0.46870433  0.93943933  0.10590650     0.13200
H1248       H  0.49912338  0.99761624  0.09865444     0.13200
H1249       H  0.56571406  0.88922294  0.15499417     0.26400
H1250       H  0.59012910  0.95238818  0.14939575     0.26400
O1251       O  0.66299004  0.49294677  0.70027063    -0.80600
O1252       O  0.76872231  0.52150462  0.81239533    -0.65300
O1253       O  0.71347735  0.51768667  0.73484266    -1.11900
C1254       C  0.80490435  0.45342040  0.69925099     1.06300
O1255       O  0.81120364  0.49262038  0.79045208    -0.78500
O1256       O  0.80518272  0.53242316  0.70293734    -0.66100
Ni1257     Ni  0.67710973  0.49747752  0.74843616     1.34900
C1258       C  0.78471848  0.54265415  0.68103735     0.85000
O1259       O  0.70326567  0.54749352  0.79607257    -0.79100
O1260       O  0.66188452  0.54383041  0.75820448    -0.89300
C1261       C  0.79858815  0.51081212  0.81391810     0.84600
O1262       O  0.69721044  0.45229852  0.75262173    -0.67500
O1263       O  0.81890067  0.46825512  0.72425261    -0.86800
C1264       C  0.70740319  0.44947283  0.78317710     0.85400
C1265       C  0.67480084  0.55747967  0.78484063     1.07000
H1266       H  0.76858014  0.47014093  0.75668150     0.38800
O1267       O  0.76704975  0.49334046  0.74807573    -1.09500
O1268       O  0.75606895  0.53204804  0.68343256    -0.66100
Ni1269     Ni  0.74218936  0.49053585  0.70929294     1.26300
O1270       O  0.72211264  0.47558298  0.79583228    -0.66400
O1271       O  0.77603598  0.46166098  0.68836808    -0.78700
C1272       C  0.67944025  0.48679055  0.67336276     0.84800
O1273       O  0.71042115  0.48471662  0.67435310    -0.65800
Ni1274     Ni  0.80728809  0.51107437  0.74631016     1.27400
Ni1275     Ni  0.73791297  0.51903943  0.77457213     1.26100
H1276       H  0.71008993  0.54038961  0.72547352     0.39300
O1277       O  0.01105521  0.91090198  0.47526840    -0.80600
O1278       O  0.98571334  0.02527588  0.58997006    -0.65300
O1279       O  0.00120081  0.96213521  0.51589413    -1.11900
C1280       C  0.04380165  0.06809709  0.48059963     1.06300
O1281       O  0.99812655  0.07523679  0.56526689    -0.78500
O1282       O  0.96476516  0.05315711  0.47509440    -0.66100
Ni1283     Ni  0.02327498  0.91980153  0.52154313     1.34900
C1284       C  0.96360049  0.02836959  0.45332915     0.85000
O1285       O  0.97261045  0.95258701  0.57604832    -0.79100
O1286       O  0.98289926  0.90616360  0.54135027    -0.89300
C1287       C  0.98897152  0.05879051  0.59085711     0.84600
O1288       O  0.04106095  0.92527743  0.56647999    -0.67500
O1289       O  0.02274006  0.08145762  0.50070518    -0.86800
C1290       C  0.04772003  0.94987545  0.58680659     0.85400
C1291       C  0.96656111  0.92150865  0.56495656     1.07000
H1292       H  0.03190620  0.03030233  0.53653604     0.38800
O1293       O  0.01181416  0.02363616  0.52647144    -1.09500
O1294       O  0.98180193  0.00167421  0.45881531    -0.66100
Ni1295     Ni  0.02095433  0.99517984  0.48892671     1.26300
O1296       O  0.03543499  0.98011898  0.58070300    -0.66400
O1297       O  0.04282617  0.03574689  0.46926875    -0.78700
C1298       C  0.02628456  0.92611410  0.45233725     0.84800
O1299       O  0.03265793  0.95917363  0.45480605    -0.65800
Ni1300     Ni  0.98456691  0.06248246  0.52004574     1.27400
Ni1301     Ni  0.99433419  0.99040228  0.55434580     1.26100
H1302       H  0.98042932  0.95796786  0.50598720     0.39300
C1303       C  0.47816919  0.02647358  0.80907280     0.80500
N1304       N  0.45226728  0.02303668  0.78864962    -0.77800
C1305       C  0.44956194  0.99498201  0.76810551     0.82900
N1306       N  0.47332759  0.97092117  0.76718321    -0.77800
C1307       C  0.49954099  0.97384356  0.78686117     0.83000
N1308       N  0.50184594  0.00166089  0.80759301    -0.79500
C1309       C  0.76688318  0.01426896  0.49418126     0.80500
N1310       N  0.73528076  0.00939058  0.49994655    -0.77800
C1311       C  0.72499283  0.00638546  0.53172698     0.82900
N1312       N  0.74639366  0.00741742  0.55728109    -0.77800
C1313       C  0.77748034  0.01253630  0.55184344     0.83000
N1314       N  0.78775332  0.01681831  0.52033192    -0.79500
C1315       C  0.51567369  0.19604004  0.54305217     0.80500
N1316       N  0.53777168  0.17029447  0.53766836    -0.77800
C1317       C  0.56681294  0.17671999  0.52575404     0.82900
N1318       N  0.57355753  0.20969227  0.51845252    -0.77800
C1319       C  0.55171375  0.23570996  0.52264436     0.83000
N1320       N  0.52267522  0.22896432  0.53534245    -0.79500
N1321       N  0.67392630  0.09889178  0.39665682    -0.36300
N1322       N  0.61062376  0.11659785  0.36123452    -0.56900
N1323       N  0.64211880  0.10796121  0.30008695    -0.36300
N1324       N  0.70356615  0.09210545  0.33774281    -0.56900
C1325       C  0.65141283  0.09083754  0.41840409     0.27200
C1326       C  0.70105572  0.08142821  0.40594953     0.27200
C1327       C  0.61073763  0.11398313  0.29009999     0.27200
C1328       C  0.65532048  0.07911966  0.28396108     0.27200
C1329       C  0.60400195  0.12200293  0.39393577     0.35900
C1330       C  0.58770736  0.13423809  0.34332514     0.35900
C1331       C  0.73094784  0.09000329  0.35536125     0.35900
C1332       C  0.71009103  0.08609060  0.30580967     0.35900
C1333       C  0.66394867  0.06833768  0.44207999    -0.21600
C1334       C  0.69537643  0.06243132  0.43426113    -0.21600
C1335       C  0.60413503  0.08862409  0.26614902    -0.21600
C1336       C  0.63148622  0.06659282  0.26291485    -0.21600
C1337       C  0.57633300  0.14212667  0.39694769    -0.22700
C1338       C  0.56587129  0.14952915  0.36511835    -0.22700
C1339       C  0.75640250  0.08471369  0.33419971    -0.22700
C1340       C  0.74319085  0.08278285  0.30247273    -0.22700
C1341       C  0.62223769  0.10875622  0.42126843    -0.18000
C1342       C  0.73064241  0.08246283  0.38934040    -0.18000
C1343       C  0.68861131  0.06560605  0.28805937    -0.18000
C1344       C  0.58683772  0.13629453  0.30770273    -0.18000
H1345       H  0.65200053  0.05857412  0.46360576     0.14900
H1346       H  0.71197773  0.04640954  0.44832411     0.14900
H1347       H  0.58119587  0.08465963  0.25409979     0.14900
H1348       H  0.63355017  0.04407146  0.24665641     0.14900
H1349       H  0.56470198  0.15056166  0.41972087     0.13200
H1350       H  0.54442271  0.16439617  0.35945870     0.13200
H1351       H  0.78103251  0.07867211  0.34104884     0.13200
H1352       H  0.75577930  0.07371231  0.28046061     0.13200
H1353       H  0.67106953  0.11766137  0.37838380     0.26400
H1354       H  0.65377352  0.12295652  0.31808581     0.26400
N1355       N  0.38243997  0.09634932  0.62553607    -0.36300
N1356       N  0.34156374  0.14823310  0.58984393    -0.56900
N1357       N  0.28237462  0.12102028  0.61223644    -0.36300
N1358       N  0.32714531  0.07233474  0.65162325    -0.56900
C1359       C  0.40219963  0.12241617  0.62204715     0.27200
C1360       C  0.39363009  0.07684156  0.65089331     0.27200
C1361       C  0.27280232  0.15200418  0.59890771     0.27200
C1362       C  0.26655092  0.11405122  0.64103556     0.27200
C1363       C  0.37100728  0.14889301  0.57648545     0.35900
C1364       C  0.32057781  0.15538412  0.56464345     0.35900
C1365       C  0.34633463  0.04408003  0.65256564     0.35900
C1366       C  0.29747120  0.06136908  0.64795014     0.35900
C1367       C  0.42713194  0.11951741  0.64524263    -0.21600
C1368       C  0.42153431  0.09046428  0.66384753    -0.21600
C1369       C  0.24879887  0.16536152  0.61952356    -0.21600
C1370       C  0.24522400  0.14189510  0.64611619    -0.21600
C1371       C  0.36897560  0.15633583  0.54288504    -0.22700
C1372       C  0.33707368  0.15918913  0.53518549    -0.22700
C1373       C  0.32908191  0.01440933  0.65007837    -0.22700
C1374       C  0.29761241  0.02552436  0.64639770    -0.22700
C1375       C  0.39966182  0.14481295  0.59505812    -0.18000
C1376       C  0.37851237  0.04672598  0.66048738    -0.18000
C1377       C  0.27295657  0.08236617  0.66028694    -0.18000
C1378       C  0.28837343  0.16683806  0.56999676    -0.18000
H1379       H  0.44750682  0.13596060  0.64777711     0.14900
H1380       H  0.43636589  0.08039716  0.68404147     0.14900
H1381       H  0.23611020  0.18991687  0.61666360     0.14900
H1382       H  0.22881733  0.14511131  0.66657770     0.14900
H1383       H  0.38837943  0.15937014  0.52575186     0.13200
H1384       H  0.32704081  0.16615815  0.51120739     0.13200
H1385       H  0.33833917  0.98811385  0.65157383     0.13200
H1386       H  0.27675228  0.00973111  0.64574364     0.13200
H1387       H  0.36326255  0.09087880  0.60960392     0.26400
H1388       H  0.29986803  0.10499609  0.60159620     0.26400
C1389       C  0.76258197  0.26025732  0.74303377     0.80500
N1390       N  0.73735721  0.25300731  0.76134788    -0.77800
C1391       C  0.70967862  0.27148414  0.75868537     0.82900
N1392       N  0.70777949  0.29806277  0.73687361    -0.77800
C1393       C  0.73343943  0.30583002  0.71802969     0.83000
N1394       N  0.76035763  0.28615160  0.72113423    -0.79500
N1395       N  0.66584484  0.37557580  0.54981806    -0.36300
N1396       N  0.60566890  0.41702145  0.54633692    -0.56900
N1397       N  0.62003474  0.47057688  0.59678678    -0.36300
N1398       N  0.67651593  0.42806616  0.60634707    -0.56900
C1399       C  0.64493612  0.35230328  0.53841592     0.27200
C1400       C  0.68611775  0.35879405  0.57090763     0.27200
C1401       C  0.58756442  0.47323673  0.59412505     0.27200
C1402       C  0.63032971  0.48017063  0.62819758     0.27200
C1403       C  0.60569285  0.39559813  0.51937763     0.35900
C1404       C  0.58456881  0.44290438  0.53928188     0.35900
C1405       C  0.70338988  0.41182263  0.59606805     0.35900
C1406       C  0.68432014  0.45982778  0.61676307     0.35900
C1407       C  0.65388503  0.31961502  0.54967080    -0.21600
C1408       C  0.68005851  0.32380595  0.57051806    -0.21600
C1409       C  0.57659828  0.48652878  0.62442183    -0.21600
C1410       C  0.60335677  0.49071075  0.64587916    -0.21600
C1411       C  0.58507865  0.40791216  0.49492642    -0.22700
C1412       C  0.57265549  0.43871351  0.50694810    -0.22700
C1413       C  0.72892202  0.43303407  0.59985197    -0.22700
C1414       C  0.71680066  0.46418809  0.61182326    -0.22700
C1415       C  0.61626147  0.36119248  0.52148705    -0.18000
C1416       C  0.70540724  0.37597036  0.59438467    -0.18000
C1417       C  0.66387739  0.47853786  0.63879256    -0.18000
C1418       C  0.56934336  0.46295902  0.56449225    -0.18000
H1419       H  0.64143779  0.29579223  0.54549732     0.14900
H1420       H  0.69157019  0.30402678  0.58569540     0.14900
H1421       H  0.55194220  0.49196957  0.63062182     0.14900
H1422       H  0.60278735  0.50006998  0.67146080     0.14900
H1423       H  0.57811733  0.39470053  0.47207541     0.13200
H1424       H  0.55460260  0.45467212  0.49469550     0.13200
H1425       H  0.75361367  0.42587054  0.59623277     0.13200
H1426       H  0.73077659  0.48640965  0.61848970     0.13200
H1427       H  0.66442793  0.40219163  0.54600803     0.26400
H1428       H  0.63481441  0.46259187  0.57727378     0.26400
N1429       N  0.62148070  0.92553327  0.64857132    -0.36300
N1430       N  0.61035473  0.86666833  0.68533881    -0.56900
N1431       N  0.64272697  0.81832329  0.63938650    -0.36300
N1432       N  0.65158066  0.87747401  0.59873168    -0.56900
C1433       C  0.59962764  0.93760975  0.67043406     0.27200
C1434       C  0.61711456  0.94308959  0.62022133     0.27200
C1435       C  0.62106604  0.79750349  0.65347633     0.27200
C1436       C  0.65372858  0.80370437  0.61052119     0.27200
C1437       C  0.60896299  0.89127211  0.70934627     0.35900
C1438       C  0.61183342  0.83650453  0.70112487     0.35900
C1439       C  0.65878309  0.91005141  0.59034294     0.35900
C1440       C  0.67685020  0.85675486  0.58976569     0.35900
C1441       C  0.58122262  0.96394951  0.65613433    -0.21600
C1442       C  0.59251962  0.96758291  0.62408549    -0.21600
C1443       C  0.61875291  0.76809867  0.63344739    -0.21600
C1444       C  0.63966037  0.77171046  0.60670744    -0.21600
C1445       C  0.60974235  0.87680004  0.74063364    -0.22700
C1446       C  0.61148491  0.84191461  0.73539750    -0.22700
C1447       C  0.68881322  0.91025118  0.57660989    -0.22700
C1448       C  0.70018210  0.87666710  0.57632109    -0.22700
C1449       C  0.59703443  0.92443625  0.70265639    -0.18000
C1450       C  0.63750424  0.93912688  0.59296337    -0.18000
C1451       C  0.67612167  0.82004051  0.58900140    -0.18000
C1452       C  0.60532706  0.80549338  0.68459783    -0.18000
H1453       H  0.56192300  0.97886324  0.66754606     0.14900
H1454       H  0.58394319  0.98618692  0.60589358     0.14900
H1455       H  0.60397202  0.74621449  0.63778690     0.14900
H1456       H  0.64336138  0.75313314  0.58660313     0.14900
H1457       H  0.60664449  0.88996383  0.76446386     0.13200
H1458       H  0.61141782  0.82289313  0.75467629     0.13200
H1459       H  0.70111782  0.93211927  0.56713354     0.13200
H1460       H  0.72221700  0.86825562  0.56496233     0.13200
H1461       H  0.63964147  0.90716778  0.65327930     0.26400
H1462       H  0.65065773  0.84158591  0.64940853     0.26400
N1463       N  0.87106356  0.10218450  0.68473775    -0.36300
N1464       N  0.91992190  0.06785740  0.64472028    -0.56900
N1465       N  0.95966154  0.13157309  0.65210817    -0.36300
N1466       N  0.90956998  0.16160088  0.69648614    -0.56900
C1467       C  0.85920478  0.07048850  0.68161827     0.27200
C1468       C  0.85272364  0.12025936  0.70636313     0.27200
C1469       C  0.98033644  0.10821873  0.63763122     0.27200
C1470       C  0.97595970  0.15607477  0.66998357     0.27200
C1471       C  0.89258793  0.05297518  0.63415177     0.35900
C1472       C  0.93837332  0.06863197  0.61742532     0.35900
C1473       C  0.87951743  0.17464514  0.69806085     0.35900
C1474       C  0.92711039  0.18736938  0.68532005     0.35900
C1475       C  0.83345362  0.06766490  0.70261454    -0.21600
C1476       C  0.82924012  0.09941564  0.71824434    -0.21600
C1477       C  0.01107895  0.11856539  0.64567392    -0.21600
C1478       C  0.00833200  0.14828420  0.66642367    -0.21600
C1479       C  0.89412687  0.04393959  0.60054566    -0.22700
C1480       C  0.92279283  0.05419325  0.58992060    -0.22700
C1481       C  0.87791606  0.20888323  0.68853318    -0.22700
C1482       C  0.90815777  0.21684136  0.68005655    -0.22700
C1483       C  0.86511223  0.04941830  0.65358405    -0.18000
C1484       C  0.85384190  0.15628245  0.70974253    -0.18000
C1485       C  0.96052064  0.18570163  0.68646936    -0.18000
C1486       C  0.97036209  0.07893639  0.61727588    -0.18000
H1487       H  0.81734166  0.04637176  0.70360587     0.14900
H1488       H  0.80910825  0.10726742  0.73339230     0.14900
H1489       H  0.03314192  0.10593298  0.63777845     0.14900
H1490       H  0.02787576  0.16290330  0.67676671     0.14900
H1491       H  0.87611487  0.03223476  0.58476037     0.13200
H1492       H  0.93124981  0.05140869  0.56458509     0.13200
H1493       H  0.85712470  0.22615228  0.68743404     0.13200
H1494       H  0.91528849  0.24155752  0.67111293     0.13200
H1495       H  0.88742147  0.11270291  0.66891013     0.26400
H1496       H  0.93499217  0.13123090  0.64871250     0.26400
N1497       N  0.56206209  0.19830998  0.85694128    -0.36300
N1498       N  0.54771783  0.15693105  0.91434192    -0.56900
N1499       N  0.60469483  0.17202241  0.95483858    -0.36300
N1500       N  0.62266508  0.21002515  0.89735079    -0.56900
C1501       C  0.54135433  0.17569552  0.84364196     0.27200
C1502       C  0.58340845  0.20412907  0.83328243     0.27200
C1503       C  0.59431970  0.14181015  0.96815165     0.27200
C1504       C  0.63660666  0.17641762  0.96147005     0.27200
C1505       C  0.52027530  0.16219955  0.89718500     0.35900
C1506       C  0.54006680  0.15039655  0.94587004     0.35900
C1507       C  0.62284950  0.23143422  0.87096974     0.35900
C1508       C  0.64419354  0.22245973  0.91978239     0.35900
C1509       C  0.54818994  0.16904560  0.81037675    -0.21600
C1510       C  0.57496223  0.18736237  0.80370920    -0.21600
C1511       C  0.62072147  0.12663903  0.98436934    -0.21600
C1512       C  0.64687169  0.14853227  0.98075284    -0.21600
C1513       C  0.49448499  0.15938021  0.91776376    -0.22700
C1514       C  0.50703127  0.15312499  0.94917502    -0.22700
C1515       C  0.64438772  0.25732624  0.87654778    -0.22700
C1516       C  0.65746824  0.25212139  0.90746905    -0.22700
C1517       C  0.51960980  0.15791113  0.86265047    -0.18000
C1518       C  0.61118584  0.22249349  0.83890661    -0.18000
C1519       C  0.65531703  0.20485528  0.94881140    -0.18000
C1520       C  0.56120033  0.12988879  0.96535767    -0.18000
H1521       H  0.53633550  0.15133958  0.79342712     0.14900
H1522       H  0.58778544  0.18673211  0.78045632     0.14900
H1523       H  0.62124068  0.10255581  0.99770992     0.14900
H1524       H  0.67090757  0.14369347  0.99022460     0.14900
H1525       H  0.46958359  0.15928392  0.91028460     0.13200
H1526       H  0.49341921  0.14682536  0.97089222     0.13200
H1527       H  0.65123060  0.27683107  0.85918198     0.13200
H1528       H  0.67570372  0.26780504  0.91875364     0.13200
H1529       H  0.56292681  0.20775667  0.88148475     0.26400
H1530       H  0.59020129  0.18974839  0.94191511     0.26400
C1531       C  0.02485881  0.70053927  0.56539944     0.80500
N1532       N  0.99848926  0.68426540  0.55351915    -0.77800
C1533       C  0.00169694  0.65727203  0.53126691     0.82900
N1534       N  0.03127738  0.64770861  0.52116232    -0.77800
C1535       C  0.05775214  0.66368433  0.53258939     0.83000
N1536       N  0.05421343  0.69043231  0.55447195    -0.79500
N1537       N  0.19319142  0.64613211  0.40030710    -0.36300
N1538       N  0.21283698  0.61730630  0.34089240    -0.56900
N1539       N  0.15125739  0.63596122  0.30290667    -0.36300
N1540       N  0.12995042  0.66200968  0.36521877    -0.56900
C1541       C  0.21908554  0.62681600  0.40973791     0.27200
C1542       C  0.17210004  0.64438777  0.42508814     0.27200
C1543       C  0.16114253  0.60450373  0.28931169     0.27200
C1544       C  0.11935784  0.64296865  0.29625968     0.27200
C1545       C  0.24205675  0.61995053  0.35501561     0.35900
C1546       C  0.21663146  0.61012570  0.30842732     0.35900
C1547       C  0.12731391  0.67513141  0.39669902     0.35900
C1548       C  0.10878963  0.68033746  0.34587666     0.35900
C1549       C  0.21442971  0.61361821  0.44116219    -0.21600
C1550       C  0.18483064  0.62484090  0.45099291    -0.21600
C1551       C  0.13454954  0.59123577  0.27290507    -0.21600
C1552       C  0.10876372  0.61549399  0.27656091    -0.21600
C1553       C  0.26518071  0.61481574  0.33117029    -0.22700
C1554       C  0.24910803  0.60878461  0.30145194    -0.22700
C1555       C  0.10469984  0.70151216  0.39787118    -0.22700
C1556       C  0.09365391  0.70552583  0.36587458    -0.22700
C1557       C  0.24618372  0.62019381  0.38987216    -0.18000
C1558       C  0.14191922  0.66061918  0.42517956    -0.18000
C1559       C  0.10018666  0.67134752  0.31193835    -0.18000
C1560       C  0.19401948  0.58974936  0.29203739    -0.18000
H1561       H  0.22964885  0.59623559  0.45507750     0.14900
H1562       H  0.17368411  0.61849344  0.47421541     0.14900
H1563       H  0.13377427  0.56685426  0.25942598     0.14900
H1564       H  0.08454960  0.61206708  0.26753985     0.14900
H1565       H  0.29073175  0.61294044  0.33508956     0.13200
H1566       H  0.25996199  0.59987077  0.27839922     0.13200
H1567       H  0.09699808  0.71631271  0.41960103     0.13200
H1568       H  0.07580639  0.72474200  0.35908877     0.13200
H1569       H  0.19011642  0.66028657  0.37848167     0.26400
H1570       H  0.16584129  0.65237073  0.31681162     0.26400
C1571       C  0.30767270  0.71951481  0.76030576     0.80500
N1572       N  0.29144546  0.69000403  0.76067851    -0.77800
C1573       C  0.26003186  0.68958785  0.75348385     0.82900
N1574       N  0.24562602  0.71836580  0.74119268    -0.77800
C1575       C  0.26176036  0.74792901  0.73821957     0.83000
N1576       N  0.29278394  0.74913870  0.74915068    -0.79500
C1577       C  0.23557437  0.54341288  0.53422385     0.80500
N1578       N  0.25239394  0.55129970  0.56214276    -0.77800
C1579       C  0.28010628  0.56743384  0.56081836     0.82900
N1580       N  0.29202038  0.57640797  0.53124802    -0.77800
C1581       C  0.27594099  0.56884652  0.50277261     0.83000
N1582       N  0.24754744  0.55216445  0.50416305    -0.79500
N1583       N  0.40591470  0.61752980  0.69801525    -0.36300
N1584       N  0.43062213  0.60219325  0.63071151    -0.56900
N1585       N  0.48855141  0.63566697  0.64806977    -0.36300
N1586       N  0.46486413  0.64481141  0.71832406    -0.56900
C1587       C  0.37922604  0.60563836  0.68381615     0.27200
C1588       C  0.39874628  0.62665205  0.72967903     0.27200
C1589       C  0.49249084  0.62946443  0.61421819     0.27200
C1590       C  0.49768337  0.66858712  0.65724833     0.27200
C1591       C  0.39885669  0.60009333  0.62489296     0.35900
C1592       C  0.44474924  0.59768801  0.60076056     0.35900
C1593       C  0.45036763  0.64938610  0.74775987     0.35900
C1594       C  0.49118230  0.66338786  0.71917476     0.35900
C1595       C  0.35511674  0.60511084  0.70713888    -0.21600
C1596       C  0.36748770  0.61859966  0.73620432    -0.21600
C1597       C  0.50544858  0.65915597  0.60167917    -0.21600
C1598       C  0.50815033  0.68353083  0.62817583    -0.21600
C1599       C  0.39291093  0.59559392  0.59087153    -0.22700
C1600       C  0.42187512  0.59327340  0.57579634    -0.22700
C1601       C  0.46964269  0.66726907  0.76966658    -0.22700
C1602       C  0.49628537  0.67496445  0.75203277    -0.22700
C1603       C  0.37481172  0.60013075  0.64950921    -0.18000
C1604       C  0.41707959  0.64863830  0.74988021    -0.18000
C1605       C  0.49696984  0.68421339  0.69138196    -0.18000
C1606       C  0.47757387  0.60135330  0.59457073    -0.18000
H1607       H  0.33055149  0.59794111  0.70310291     0.14900
H1608       H  0.35436975  0.62379815  0.75885551     0.14900
H1609       H  0.51003327  0.66398115  0.57568444     0.14900
H1610       H  0.51678378  0.70946084  0.62611122     0.14900
H1611       H  0.37010637  0.59302588  0.57814274     0.13200
H1612       H  0.42551743  0.59047857  0.54918426     0.13200
H1613       H  0.46342836  0.67723850  0.79413228     0.13200
H1614       H  0.51397607  0.69302557  0.76056123     0.13200
H1615       H  0.42622670  0.62290653  0.68515656     0.26400
H1616       H  0.47907792  0.61792312  0.66415046     0.26400
C1617       C  0.99652389  0.61504100  0.74131311     0.80500
N1618       N  0.99953803  0.58018088  0.73703628    -0.77800
C1619       C  0.98816741  0.56474640  0.70894072     0.82900
N1620       N  0.97501097  0.58470872  0.68490332    -0.77800
C1621       C  0.97335445  0.61970647  0.68807361     0.83000
N1622       N  0.98425887  0.63506394  0.71641756    -0.79500
N1623       N  0.09058084  0.44007577  0.60127482    -0.36300
N1624       N  0.06127542  0.38977679  0.64421833    -0.56900
N1625       N  0.11155211  0.33808434  0.62694064    -0.36300
N1626       N  0.13820706  0.38962636  0.58077360    -0.56900
C1627       C  0.06360187  0.45790073  0.60888608     0.27200
C1628       C  0.10564031  0.45774792  0.57776524     0.27200
C1629       C  0.09162373  0.31857635  0.64531316     0.27200
C1630       C  0.12923242  0.31754943  0.60517575     0.27200
C1631       C  0.04537142  0.41941122  0.65359708     0.35900
C1632       C  0.05630447  0.36673783  0.66862846     0.35900
C1633       C  0.15340628  0.41947264  0.57703846     0.35900
C1634       C  0.16108523  0.36503636  0.58559210     0.35900
C1635       C  0.06071466  0.48702299  0.58916142    -0.21600
C1636       C  0.08749304  0.48696681  0.56942505    -0.21600
C1637       C  0.09730552  0.28434763  0.63548345    -0.21600
C1638       C  0.12025191  0.28376968  0.61007139    -0.21600
C1639       C  0.02968927  0.41476453  0.68313382    -0.22700
C1640       C  0.03643646  0.38197564  0.69246088    -0.22700
C1641       C  0.18617244  0.41402170  0.57975360    -0.22700
C1642       C  0.19106263  0.37944453  0.58557900    -0.22700
C1643       C  0.04522153  0.45148644  0.63709303    -0.18000
C1644       C  0.13771868  0.45096894  0.56918908    -0.18000
C1645       C  0.15460941  0.32968437  0.58368805    -0.18000
C1646       C  0.06835710  0.33187249  0.66980666    -0.18000
H1647       H  0.04243021  0.50731973  0.59059346     0.14900
H1648       H  0.09394229  0.50721422  0.55269834     0.14900
H1649       H  0.08560821  0.26208615  0.64502314     0.14900
H1650       H  0.12985252  0.26092300  0.59745460     0.14900
H1651       H  0.01531105  0.43317239  0.69737237     0.13200
H1652       H  0.02753762  0.37136648  0.71501595     0.13200
H1653       H  0.20457907  0.43285238  0.57758450     0.13200
H1654       H  0.21406698  0.36649754  0.58909978     0.13200
H1655       H  0.10031792  0.41958154  0.61472936     0.26400
H1656       H  0.11366523  0.36458739  0.63008147     0.26400
N1657       N  0.90639741  0.58295897  0.55240896    -0.36300
N1658       N  0.84550655  0.62814323  0.52045650    -0.56900
N1659       N  0.79810390  0.59504833  0.59573739    -0.36300
N1660       N  0.85074662  0.55723294  0.62375079    -0.56900
C1661       C  0.89393871  0.56954538  0.52425057     0.27200
C1662       C  0.90063341  0.56128446  0.57699895     0.27200
C1663       C  0.78629368  0.62587903  0.58321572     0.27200
C1664       C  0.78497181  0.58772076  0.62626662     0.27200
C1665       C  0.85466969  0.60273716  0.49871510     0.35900
C1666       C  0.81582906  0.62100851  0.53044447     0.35900
C1667       C  0.88108331  0.56334968  0.63337692     0.35900
C1668       C  0.83272314  0.56114103  0.65108795     0.35900
C1669       C  0.88094417  0.53777772  0.53064762    -0.21600
C1670       C  0.88534136  0.53244034  0.56444891    -0.21600
C1671       C  0.76424118  0.63857678  0.60631206    -0.21600
C1672       C  0.76287238  0.61454144  0.63260247    -0.21600
C1673       C  0.82975531  0.57991116  0.49453213    -0.22700
C1674       C  0.80545121  0.59111795  0.51520019    -0.22700
C1675       C  0.88264801  0.57057548  0.66730167    -0.22700
C1676       C  0.85195743  0.56962104  0.67848972    -0.22700
C1677       C  0.88692560  0.59133000  0.49738710    -0.18000
C1678       C  0.90469358  0.57115179  0.61030704    -0.18000
C1679       C  0.79882411  0.56274657  0.65068019    -0.18000
C1680       C  0.79809752  0.64201759  0.55267942    -0.18000
H1681       H  0.86777033  0.52152435  0.51344121     0.14900
H1682       H  0.87654969  0.51109822  0.57843618     0.14900
H1683       H  0.75108132  0.66300585  0.60495865     0.14900
H1684       H  0.74945464  0.61831241  0.65529343     0.14900
H1685       H  0.83049086  0.55568760  0.48065507     0.13200
H1686       H  0.78292329  0.57879667  0.51873497     0.13200
H1687       H  0.90318558  0.57891277  0.68170622     0.13200
H1688       H  0.84441912  0.57761206  0.70323045     0.13200
H1689       H  0.91484562  0.60795491  0.55549596     0.26400
H1690       H  0.81584241  0.58034250  0.58380174     0.26400
N1691       N  0.10057103  0.82748061  0.68665791    -0.36300
N1692       N  0.07016862  0.87774816  0.64016372    -0.56900
N1693       N  0.10387561  0.93724507  0.66948886    -0.36300
N1694       N  0.15815035  0.88293697  0.72537837    -0.56900
C1695       C  0.08669829  0.80648782  0.66407411     0.27200
C1696       C  0.12508269  0.80965071  0.70150639     0.27200
C1697       C  0.09295648  0.95079548  0.63963083     0.27200
C1698       C  0.13104001  0.95296694  0.68142381     0.27200
C1699       C  0.04968000  0.85113246  0.64104306     0.35900
C1700       C  0.05237490  0.90611191  0.63124797     0.35900
C1701       C  0.14000306  0.85785158  0.73645083     0.35900
C1702       C  0.14001439  0.91204847  0.72689080     0.35900
C1703       C  0.10275221  0.77456195  0.66408052    -0.21600
C1704       C  0.12713983  0.77662172  0.68775382    -0.21600
C1705       C  0.11391531  0.97681172  0.63229474    -0.21600
C1706       C  0.13764033  0.97800395  0.65809722    -0.21600
C1707       C  0.01906909  0.86250359  0.63275338    -0.22700
C1708       C  0.02093577  0.89710261  0.62689749    -0.22700
C1709       C  0.11069307  0.87130340  0.74702808    -0.22700
C1710       C  0.11056633  0.90599328  0.74003242    -0.22700
C1711       C  0.05900761  0.81592339  0.64521396    -0.18000
C1712       C  0.14619616  0.82403153  0.72565984    -0.18000
C1713       C  0.14949692  0.94201409  0.71167681    -0.18000
C1714       C  0.06486596  0.93799026  0.62054320    -0.18000
H1715       H  0.09772128  0.75224006  0.64849451     0.14900
H1716       H  0.14437113  0.75627206  0.69403568     0.14900
H1717       H  0.11283731  0.99275382  0.61034277     0.14900
H1718       H  0.15775683  0.99490749  0.65903756     0.14900
H1719       H  0.99786343  0.84727882  0.63034497     0.13200
H1720       H  0.00186332  0.91385425  0.61866944     0.13200
H1721       H  0.09031772  0.85686733  0.75450290     0.13200
H1722       H  0.09056663  0.92408286  0.74124306     0.13200
H1723       H  0.09322090  0.85292072  0.69134061     0.26400
H1724       H  0.09293085  0.91719052  0.68129354     0.26400
N1725       N  0.12970089  0.63070539  0.86477114    -0.36300
N1726       N  0.17637548  0.61895297  0.91137852    -0.56900
N1727       N  0.13003390  0.59483017  0.95921035    -0.36300
N1728       N  0.07957621  0.61057792  0.91176302    -0.56900
C1729       C  0.15520797  0.64503225  0.85100423     0.27200
C1730       C  0.10367202  0.64885464  0.85445955     0.27200
C1731       C  0.15044227  0.61401595  0.97871497     0.27200
C1732       C  0.10262406  0.58903142  0.97599592     0.27200
C1733       C  0.19604508  0.61733683  0.88551454     0.35900
C1734       C  0.19319273  0.61074128  0.93866523     0.35900
C1735       C  0.06552697  0.61209643  0.88115515     0.35900
C1736       C  0.06614069  0.58410473  0.92755477     0.35900
C1737       C  0.14544790  0.67275337  0.83156819    -0.21600
C1738       C  0.11281715  0.67538358  0.83406943    -0.21600
C1739       C  0.13545286  0.62025566  0.00902791    -0.21600
C1740       C  0.10590451  0.60379359  0.00764803    -0.21600
C1741       C  0.22650702  0.60717066  0.89604872    -0.22700
C1742       C  0.22475455  0.60330876  0.93023584    -0.22700
C1743       C  0.04329983  0.58669485  0.87721821    -0.22700
C1744       C  0.04354563  0.56901899  0.90643297    -0.22700
C1745       C  0.18684849  0.63255904  0.85536979    -0.18000
C1746       C  0.07256168  0.63648359  0.85683027    -0.18000
C1747       C  0.07409020  0.57445250  0.96090578    -0.18000
C1748       C  0.18228223  0.62420567  0.96892453    -0.18000
H1749       H  0.16012474  0.68895766  0.81673717     0.14900
H1750       H  0.09752240  0.69285525  0.82008518     0.14900
H1751       H  0.14496084  0.63457893  0.03017534     0.14900
H1752       H  0.08812679  0.60455683  0.02696537     0.14900
H1753       H  0.24803536  0.60613332  0.88142480     0.13200
H1754       H  0.24480598  0.59921727  0.94726546     0.13200
H1755       H  0.02903991  0.58072715  0.85522119     0.13200
H1756       H  0.02937653  0.54664458  0.91022162     0.13200
H1757       H  0.12976450  0.60764055  0.87786067     0.26400
H1758       H  0.13410376  0.58581793  0.93495345     0.26400
C1759       C  0.72255903  0.19493359  0.27826440     0.80500
N1760       N  0.72845100  0.22502120  0.26268529    -0.77800
C1761       C  0.75623506  0.22868038  0.24669958     0.82900
N1762       N  0.77801392  0.20234808  0.24661927    -0.77800
C1763       C  0.77272790  0.17272738  0.26254861     0.83000
N1764       N  0.74499323  0.16886814  0.27893303    -0.79500
N1765       N  0.62979372  0.32788918  0.35356364    -0.36300
N1766       N  0.58804308  0.39046703  0.37493806    -0.56900
N1767       N  0.53583985  0.34633114  0.37809178    -0.36300
N1768       N  0.57979274  0.28854829  0.35530135    -0.56900
C1769       C  0.64152294  0.35539270  0.33896290     0.27200
C1770       C  0.64015293  0.29954703  0.33636548     0.27200
C1771       C  0.52228439  0.37843099  0.38468720     0.27200
C1772       C  0.51888936  0.32880131  0.35359263     0.27200
C1773       C  0.61878775  0.40055901  0.37658353     0.35900
C1774       C  0.57149235  0.40918230  0.39835519     0.35900
C1775       C  0.60113098  0.26233604  0.35721496     0.35900
C1776       C  0.55114519  0.27623026  0.35963070     0.35900
C1777       C  0.66036238  0.34455064  0.31219256    -0.21600
C1778       C  0.65954143  0.30892407  0.31063316    -0.21600
C1779       C  0.49523473  0.38129830  0.36408825    -0.21600
C1780       C  0.49350145  0.35072760  0.34426710    -0.21600
C1781       C  0.62199776  0.42616502  0.40071673    -0.22700
C1782       C  0.59227931  0.43159875  0.41455572    -0.22700
C1783       C  0.58633037  0.23214719  0.36421090    -0.22700
C1784       C  0.55415433  0.24094137  0.36572600    -0.22700
C1785       C  0.64368257  0.38704444  0.35603842    -0.18000
C1786       C  0.63137566  0.26597265  0.34433986    -0.18000
C1787       C  0.52634813  0.29296116  0.34244509    -0.18000
C1788       C  0.53788173  0.40610343  0.40411845    -0.18000
H1789       H  0.67488862  0.36059215  0.29702194     0.14900
H1790       H  0.67193003  0.29203658  0.29304407     0.14900
H1791       H  0.47955782  0.40389345  0.36183451     0.14900
H1792       H  0.47534165  0.34523806  0.32556111     0.14900
H1793       H  0.64355472  0.43938995  0.40777462     0.13200
H1794       H  0.58730172  0.44981691  0.43459206     0.13200
H1795       H  0.59741531  0.20667960  0.36508922     0.13200
H1796       H  0.53492376  0.22315062  0.36778172     0.13200
H1797       H  0.61764289  0.32844025  0.37616086     0.26400
H1798       H  0.55650794  0.33700092  0.39021224     0.26400
C1799       C  0.80639517  0.46023866  0.38900103     0.80500
N1800       N  0.81165087  0.44974163  0.42066909    -0.77800
C1801       C  0.79819994  0.42066761  0.43125272     0.82900
N1802       N  0.77908654  0.40275830  0.41037844    -0.77800
C1803       C  0.77348488  0.41322953  0.37866117     0.83000
N1804       N  0.78730529  0.44207445  0.36813400    -0.79500
C1805       C  0.97216539  0.51482852  0.23133677     0.80500
N1806       N  0.95682874  0.54581595  0.23140309    -0.77800
C1807       C  0.96646466  0.57213221  0.25103383     0.82900
N1808       N  0.99209028  0.56709074  0.27189460    -0.77800
C1809       C  0.00808053  0.53583818  0.27196098     0.83000
N1810       N  0.99751721  0.50948152  0.25220206    -0.79500
C1811       C  0.98119421  0.24417735  0.43633851     0.80500
N1812       N  0.00634642  0.26456671  0.44215036    -0.77800
C1813       C  0.01055992  0.28075553  0.47227604     0.82900
N1814       N  0.98864105  0.27685037  0.49624504    -0.77800
C1815       C  0.96350523  0.25630607  0.49061772     0.83000
N1816       N  0.95990003  0.24016188  0.46088638    -0.79500
N1817       N  0.09628396  0.44299349  0.42030341    -0.36300
N1818       N  0.14683889  0.45918789  0.37494308    -0.56900
N1819       N  0.19693376  0.41537977  0.41000271    -0.36300
N1820       N  0.14542433  0.39785404  0.45115052    -0.56900
C1821       C  0.08007808  0.45599672  0.39394930     0.27200
C1822       C  0.07885740  0.41765266  0.43241642     0.27200
C1823       C  0.21106113  0.42187002  0.38027778     0.27200
C1824       C  0.20866029  0.38494226  0.42357949     0.27200
C1825       C  0.12515990  0.48582698  0.37248903     0.35900
C1826       C  0.17493561  0.47191370  0.36564509     0.35900
C1827       C  0.12019504  0.39831299  0.47144521     0.35900
C1828       C  0.17078406  0.38707811  0.46957145     0.35900
C1829       C  0.05102157  0.44009226  0.39001688    -0.21600
C1830       C  0.05033816  0.41535583  0.41448030    -0.21600
C1831       C  0.23373081  0.39536633  0.37517281    -0.21600
C1832       C  0.23197642  0.37213523  0.40196590    -0.21600
C1833       C  0.13923343  0.51536771  0.36206196    -0.22700
C1834       C  0.17081579  0.50667656  0.35834585    -0.22700
C1835       C  0.12924554  0.38799921  0.50295072    -0.22700
C1836       C  0.16160408  0.38215377  0.50204744    -0.22700
C1837       C  0.09205670  0.48182729  0.37410588    -0.18000
C1838       C  0.08933775  0.39639923  0.45855847    -0.18000
C1839       C  0.19739432  0.37028144  0.45486473    -0.18000
C1840       C  0.20280053  0.45145677  0.35900355    -0.18000
H1841       H  0.03285008  0.44504282  0.37102808     0.14900
H1842       H  0.03146042  0.39739359  0.41824618     0.14900
H1843       H  0.24942853  0.39254904  0.35405271     0.14900
H1844       H  0.24623270  0.34860067  0.40503213     0.14900
H1845       H  0.12778645  0.54029659  0.35729976     0.13200
H1846       H  0.18867431  0.52424971  0.35167191     0.13200
H1847       H  0.11359075  0.38216698  0.52312806     0.13200
H1848       H  0.17628712  0.37084100  0.52136983     0.13200
H1849       H  0.11839082  0.45105212  0.42937948     0.26400
H1850       H  0.17985556  0.43194226  0.42063590     0.26400
N1851       N  0.84227913  0.33812795  0.59154282    -0.36300
N1852       N  0.82232497  0.39924157  0.62645219    -0.56900
N1853       N  0.86544711  0.37955322  0.68106355    -0.36300
N1854       N  0.88238494  0.31367687  0.64453841    -0.56900
C1855       C  0.81812798  0.35088998  0.57280335     0.27200
C1856       C  0.84504334  0.30408981  0.58483953     0.27200
C1857       C  0.84459912  0.40152999  0.69693522     0.27200
C1858       C  0.88154317  0.36024204  0.70418386     0.27200
C1859       C  0.81730852  0.40968934  0.59496430     0.35900
C1860       C  0.82142190  0.42767883  0.64579964     0.35900
C1861       C  0.89366390  0.29618323  0.61752221     0.35900
C1862       C  0.90803743  0.32086423  0.66377883     0.35900
C1863       C  0.80448734  0.32464137  0.55406067    -0.21600
C1864       C  0.82135549  0.29462979  0.56213092    -0.21600
C1865       C  0.84799244  0.39633346  0.73112777    -0.21600
C1866       C  0.87152505  0.37051865  0.73566830    -0.21600
C1867       C  0.81328095  0.44529502  0.59394006    -0.22700
C1868       C  0.81519405  0.45676700  0.62664189    -0.22700
C1869       C  0.92663572  0.29216505  0.61971575    -0.22700
C1870       C  0.93570176  0.30729004  0.64936723    -0.22700
C1871       C  0.81352588  0.38636731  0.56832219    -0.18000
C1872       C  0.87407968  0.28602188  0.59032055    -0.18000
C1873       C  0.90573807  0.33495206  0.69618298    -0.18000
C1874       C  0.82393962  0.42661025  0.68065985    -0.18000
H1875       H  0.78590896  0.32724255  0.53509688     0.14900
H1876       H  0.81903140  0.26969578  0.54986876     0.14900
H1877       H  0.83504314  0.40969214  0.75085057     0.14900
H1878       H  0.88008602  0.36040916  0.75931514     0.14900
H1879       H  0.80804758  0.46095534  0.57226969     0.13200
H1880       H  0.81255311  0.48329567  0.63531644     0.13200
H1881       H  0.94276666  0.28054136  0.60169597     0.13200
H1882       H  0.95997841  0.30852463  0.65881597     0.13200
H1883       H  0.85906274  0.35316526  0.60401316     0.26400
H1884       H  0.86963010  0.37834181  0.65554124     0.26400
N1885       N  0.85331967  0.37213416  0.16319250    -0.36300
N1886       N  0.89094786  0.40025972  0.11071911    -0.56900
N1887       N  0.86306694  0.35559784  0.05837526    -0.36300
N1888       N  0.82164090  0.33106544  0.11223300    -0.56900
C1889       C  0.86482002  0.40033488  0.17854558     0.27200
C1890       C  0.82718236  0.36319109  0.17934714     0.27200
C1891       C  0.87688382  0.38111507  0.04048748     0.27200
C1892       C  0.83824258  0.34125518  0.04079565     0.27200
C1893       C  0.90781599  0.40467629  0.13928994     0.35900
C1894       C  0.91272589  0.39690460  0.08643397     0.35900
C1895       C  0.81498551  0.31515830  0.14105967     0.35900
C1896       C  0.81999125  0.30655828  0.08792284     0.35900
C1897       C  0.84562504  0.41000407  0.20514634    -0.21600
C1898       C  0.82160783  0.38608837  0.20578819    -0.21600
C1899       C  0.86067157  0.38241347  0.00988181    -0.21600
C1900       C  0.83667136  0.35745122  0.01003613    -0.21600
C1901       C  0.94006738  0.40452795  0.13339793    -0.22700
C1902       C  0.94335759  0.39859466  0.09994381    -0.22700
C1903       C  0.80919877  0.28055118  0.13511262    -0.22700
C1904       C  0.81247474  0.27506176  0.10148174    -0.22700
C1905       C  0.89389087  0.41416062  0.16967767    -0.18000
C1906       C  0.81170414  0.33232083  0.17225854    -0.18000
C1907       C  0.81832362  0.31398951  0.05349923    -0.18000
C1908       C  0.90415601  0.40115387  0.05268278    -0.18000
H1909       H  0.84917737  0.43110442  0.22273151     0.14900
H1910       H  0.80296821  0.38492167  0.22410122     0.14900
H1911       H  0.86556567  0.39932181  0.98946415     0.14900
H1912       H  0.81991762  0.35212945  0.98988495     0.14900
H1913       H  0.95885138  0.40888592  0.15152608     0.13200
H1914       H  0.96574856  0.39723746  0.08690236     0.13200
H1915       H  0.80279598  0.26140483  0.15303282     0.13200
H1916       H  0.80859054  0.25093649  0.08820602     0.13200
H1917       H  0.86441514  0.35777999  0.14421029     0.26400
H1918       H  0.87076240  0.34755568  0.08194813     0.26400
N1919       N  0.82382809  0.63905363  0.30590385    -0.36300
N1920       N  0.88273174  0.70084534  0.27579707    -0.56900
N1921       N  0.86537173  0.71247698  0.36868544    -0.36300
N1922       N  0.82323867  0.65652840  0.37805224    -0.56900
C1923       C  0.82931715  0.63462924  0.27297221     0.27200
C1924       C  0.81344637  0.60912495  0.31742625     0.27200
C1925       C  0.89081186  0.73070737  0.35853208     0.27200
C1926       C  0.85888566  0.71860126  0.40167635     0.27200
C1927       C  0.85430566  0.68948124  0.26567715     0.35900
C1928       C  0.87776535  0.72544353  0.29897416     0.35900
C1929       C  0.81369175  0.62366087  0.37910030     0.35900
C1930       C  0.82338253  0.66873094  0.40982164     0.35900
C1931       C  0.82048411  0.60191610  0.26282576    -0.21600
C1932       C  0.80963748  0.58600436  0.29082032    -0.21600
C1933       C  0.90185511  0.74892199  0.38630036    -0.21600
C1934       C  0.88118269  0.74239226  0.41291206    -0.21600
C1935       C  0.83032666  0.71058091  0.27907479    -0.22700
C1936       C  0.84533677  0.73358092  0.30050438    -0.22700
C1937       C  0.80799497  0.61488937  0.41191402    -0.22700
C1938       C  0.81337751  0.64341072  0.43102475    -0.22700
C1939       C  0.85194475  0.65428449  0.25692052    -0.18000
C1940       C  0.81192107  0.60046046  0.35150570    -0.18000
C1941       C  0.83435117  0.70139036  0.42083777    -0.18000
C1942       C  0.90136570  0.73104698  0.32389577    -0.18000
H1943       H  0.82441671  0.58963699  0.23875532     0.14900
H1944       H  0.80283706  0.55930510  0.29204895     0.14900
H1945       H  0.92154404  0.76639808  0.38702942     0.14900
H1946       H  0.88315050  0.75330056  0.43784868     0.14900
H1947       H  0.80509118  0.70597625  0.27790379     0.13200
H1948       H  0.83378959  0.75122204  0.31800118     0.13200
H1949       H  0.80143147  0.59041618  0.42190066     0.13200
H1950       H  0.81199134  0.64433505  0.45792562     0.13200
H1951       H  0.83141624  0.65968342  0.32026752     0.26400
H1952       H  0.85302827  0.69648784  0.35264858     0.26400
N1953       N  0.93115921  0.10665919  0.30258599    -0.36300
N1954       N  0.86940590  0.04948751  0.28516970    -0.56900
N1955       N  0.91041171  0.02086525  0.36662918    -0.36300
N1956       N  0.94812904  0.08117501  0.37310643    -0.56900
C1957       C  0.91662709  0.11580585  0.27350279     0.27200
C1958       C  0.94570844  0.13460827  0.31436043     0.27200
C1959       C  0.88150369  0.00553861  0.35882877     0.27200
C1960       C  0.91903710  0.01839884  0.40016166     0.27200
C1961       C  0.89209136  0.06187973  0.26616548     0.35900
C1962       C  0.88222396  0.02152448  0.30003465     0.35900
C1963       C  0.96304605  0.11185193  0.37100399     0.35900
C1964       C  0.95893721  0.06602269  0.40197655     0.35900
C1965       C  0.92306838  0.14947974  0.26591441    -0.21600
C1966       C  0.94221011  0.16129516  0.29153881    -0.21600
C1967       C  0.87133647  0.99247183  0.38895078    -0.21600
C1968       C  0.89471791  0.99973532  0.41418251    -0.21600
C1969       C  0.91919183  0.04050035  0.26736116    -0.22700
C1970       C  0.91301290  0.01461105  0.28942794    -0.22700
C1971       C  0.98229572  0.11646771  0.39871181    -0.22700
C1972       C  0.98119573  0.08736643  0.41696097    -0.22700
C1973       C  0.89170520  0.09704130  0.25954589    -0.18000
C1974       C  0.95823657  0.13820507  0.34678789    -0.18000
C1975       C  0.94678400  0.03564526  0.41740479    -0.18000
C1976       C  0.86553974  0.00552950  0.32486522    -0.18000
H1977       H  0.91310960  0.16454575  0.24552552     0.14900
H1978       H  0.95034948  0.18746486  0.29441421     0.14900
H1979       H  0.84929381  0.97926344  0.39265321     0.14900
H1980       H  0.89295980  0.99349253  0.44030855     0.14900
H1981       H  0.94195842  0.04619516  0.25696299     0.13200
H1982       H  0.92946457  0.99450487  0.29804225     0.13200
H1983       H  0.99563726  0.13894829  0.40555686     0.13200
H1984       H  0.99487650  0.08389455  0.43952804     0.13200
H1985       H  0.92798506  0.08410614  0.31573888     0.26400
H1986       H  0.92400454  0.03302358  0.34917645     0.26400
O1987       O  0.91598294  0.29057921  0.73537258    -0.80600
O1988       O  0.03722386  0.20686596  0.78496330    -0.65300
O1989       O  0.96921968  0.27320720  0.76685995    -1.11900
C1990       C  0.05363328  0.31123766  0.69819634     1.06300
O1991       O  0.07530488  0.23238697  0.75412572    -0.78500
O1992       O  0.04993608  0.32455864  0.78392027    -0.66100
Ni1993     Ni  0.93787330  0.24787869  0.74910882     1.34900
C1994       C  0.02347022  0.34170530  0.78591924     0.85000
O1995       O  0.96739671  0.21643062  0.80709376    -0.79100
O1996       O  0.92104856  0.24545501  0.79314506    -0.89300
C1997       C  0.06619701  0.20805321  0.77287634     0.84600
O1998       O  0.96056280  0.24354528  0.70856860    -0.67500
O1999       O  0.07214597  0.29715639  0.72084544    -0.86800
C2000       C  0.97391864  0.21363882  0.70991801     0.85400
C2001       C  0.93684676  0.22478195  0.81280896     1.07000
H2002       H  0.02849513  0.25042264  0.72765502     0.38800
O2003       O  0.02429577  0.26405514  0.74762417    -1.09500
O2004       O  0.99974280  0.33254135  0.76791781    -0.66100
Ni2005     Ni  0.99318013  0.29550415  0.73446065     1.26300
O2006       O  0.98807672  0.20595691  0.73786311    -0.66400
O2007       O  0.02260350  0.31374023  0.70146085    -0.78700
C2008       C  0.92712043  0.31691149  0.72054105     0.84800
O2009       O  0.95708143  0.32324103  0.71918796    -0.65800
Ni2010     Ni  0.06251898  0.27888142  0.76567052     1.27400
Ni2011     Ni  0.99963112  0.23819104  0.77641314     1.26100
H2012       H  0.96358799  0.28738071  0.78609355     0.39300
C2013       C  0.98821713  0.27638757  0.98542004     0.80500
N2014       N  0.96319440  0.25531440  0.98806216    -0.77800
C2015       C  0.94344427  0.25837412  0.01444728     0.82900
N2016       N  0.94945163  0.28216543  0.03865323    -0.77800
C2017       C  0.97496172  0.30274419  0.03699122     0.83000
N2018       N  0.99456606  0.29917045  0.01047504    -0.79500
N2019       N  0.06964317  0.36301539  0.19120965    -0.36300
N2020       N  0.12983343  0.40056755  0.19443917    -0.56900
N2021       N  0.10401358  0.45743306  0.15363169    -0.36300
N2022       N  0.02644518  0.42029541  0.12960766    -0.56900
C2023       C  0.08970446  0.33686031  0.20009908     0.27200
C2024       C  0.04313526  0.34888816  0.17794354     0.27200
C2025       C  0.13430148  0.46879193  0.15905093     0.27200
C2026       C  0.08915207  0.47508267  0.12800439     0.27200
C2027       C  0.13767516  0.37202056  0.21232226     0.35900
C2028       C  0.15417490  0.42243343  0.19905184     0.35900
C2029       C  0.02071983  0.40386195  0.15818330     0.35900
C2030       C  0.03682167  0.45164368  0.13819141     0.35900
C2031       C  0.07515627  0.30556342  0.19432215    -0.21600
C2032       C  0.04584792  0.31315823  0.17972327    -0.21600
C2033       C  0.13878896  0.49490979  0.13626411    -0.21600
C2034       C  0.11091498  0.49816511  0.11625098    -0.21600
C2035       C  0.16709554  0.37550471  0.22792211    -0.22700
C2036       C  0.17762419  0.40683511  0.21945196    -0.22700
C2037       C  0.02480771  0.42599442  0.18530953    -0.22700
C2038       C  0.03517621  0.45648976  0.17248525    -0.22700
C2039       C  0.12143742  0.34058692  0.21123887    -0.18000
C2040       C  0.02002798  0.36750963  0.15898265    -0.18000
C2041       C  0.05638371  0.46946672  0.11650762    -0.18000
C2042       C  0.15731372  0.45523472  0.18377603    -0.18000
H2043       H  0.08537925  0.27991024  0.19824350     0.14900
H2044       H  0.02929051  0.29447790  0.16994069     0.14900
H2045       H  0.16021534  0.50950297  0.13365224     0.14900
H2046       H  0.10693334  0.51622079  0.09616453     0.14900
H2047       H  0.18044892  0.35681438  0.24281021     0.13200
H2048       H  0.20093689  0.41595141  0.22663568     0.13200
H2049       H  0.02362586  0.41961588  0.21146649     0.13200
H2050       H  0.04371817  0.47836834  0.18665712     0.13200
H2051       H  0.07471964  0.38905415  0.19194196     0.26400
H2052       H  0.09353947  0.43811142  0.16687963     0.26400
C2053       C  0.99978572  0.99420039  0.27193315     0.80500
N2054       N  0.98205993  0.99965999  0.24391105    -0.77800
C2055       C  0.99004933  0.98393876  0.21457484     0.82900
N2056       N  0.01730003  0.96402525  0.21305147    -0.77800
C2057       C  0.03514935  0.95873650  0.24127962     0.83000
N2058       N  0.02603717  0.97345418  0.27031842    -0.79500
C2059       C  0.24016586  0.18981046  0.26932251     0.80500
N2060       N  0.21603310  0.21385208  0.26657323    -0.77800
C2061       C  0.21897026  0.24190552  0.24769073     0.82900
N2062       N  0.24639773  0.24590039  0.23119545    -0.77800
C2063       C  0.27112884  0.22257113  0.23364473     0.83000
N2064       N  0.26776688  0.19401035  0.25262803    -0.79500
N2065       N  0.12265969  0.09585269  0.36564617    -0.36300
N2066       N  0.16632657  0.13004313  0.41608852    -0.56900
N2067       N  0.11487271  0.12819981  0.46197464    -0.36300
N2068       N  0.05678723  0.07813469  0.40891730    -0.56900
C2069       C  0.15207446  0.08794211  0.35462174     0.27200
C2070       C  0.10202535  0.07494980  0.34961530     0.27200
C2071       C  0.13557848  0.14651336  0.48134633     0.27200
C2072       C  0.09226962  0.11318174  0.48066845     0.27200
C2073       C  0.17899218  0.13478558  0.38564191     0.35900
C2074       C  0.17201987  0.15903295  0.43456589     0.35900
C2075       C  0.05671362  0.09547861  0.38022082     0.35900
C2076       C  0.05808726  0.10229039  0.43297621     0.35900
C2077       C  0.15067620  0.05998593  0.33249632    -0.21600
C2078       C  0.11870159  0.05174532  0.32924955    -0.21600
C2079       C  0.12567916  0.14326972  0.51417637    -0.21600
C2080       C  0.09904430  0.12153610  0.51383435    -0.21600
C2081       C  0.19326657  0.16660023  0.38488780    -0.22700
C2082       C  0.18871830  0.18194065  0.41552147    -0.22700
C2083       C  0.05750108  0.13072016  0.38576382    -0.22700
C2084       C  0.05792599  0.13522489  0.41973017    -0.22700
C2085       C  0.17715446  0.11116190  0.35813938    -0.18000
C2086       C  0.06864464  0.07924422  0.35222537    -0.18000
C2087       C  0.06630858  0.09376060  0.46553478    -0.18000
C2088       C  0.16230329  0.16535274  0.46831610    -0.18000
H2089       H  0.17015696  0.04883101  0.31809389     0.14900
H2090       H  0.10878960  0.03239479  0.31260885     0.14900
H2091       H  0.13670438  0.15476940  0.53612307     0.14900
H2092       H  0.08563848  0.11410073  0.53529588     0.14900
H2093       H  0.20442454  0.17849037  0.36396776     0.13200
H2094       H  0.19574134  0.20783709  0.42223193     0.13200
H2095       H  0.06117650  0.15038582  0.36746222     0.13200
H2096       H  0.06076615  0.15941037  0.43320844     0.13200
H2097       H  0.11669793  0.11732131  0.38042740     0.26400
H2098       H  0.11549634  0.12613689  0.43621520     0.26400
C2099       C  0.19313428  0.01762885  0.06876784     0.80500
N2100       N  0.21887369  0.03778359  0.06576986    -0.77800
C2101       C  0.21853477  0.06447024  0.04422564     0.82900
N2102       N  0.19167380  0.07122728  0.02608332    -0.77800
C2103       C  0.16592299  0.05107296  0.02879366     0.83000
N2104       N  0.16698905  0.02399239  0.04949693    -0.79500
N2105       N  0.34953304  0.19917632  0.07520000    -0.36300
N2106       N  0.40058299  0.22289213  0.14647223    -0.56900
N2107       N  0.44071903  0.15036835  0.09878770    -0.36300
N2108       N  0.38712641  0.13507277  0.05497194    -0.56900
C2109       C  0.33544418  0.22410921  0.09436860     0.27200
C2110       C  0.32597562  0.18094300  0.06098786     0.27200
C2111       C  0.45584558  0.15800656  0.12871688     0.27200
C2112       C  0.45161553  0.11943183  0.08541456     0.27200
C2113       C  0.38453147  0.23997118  0.12237324     0.35900
C2114       C  0.42936442  0.21473529  0.13405906     0.35900
C2115       C  0.36007370  0.13383505  0.03595015     0.35900
C2116       C  0.40886187  0.11320365  0.04049352     0.35900
C2117       C  0.30255199  0.22318442  0.09048550    -0.21600
C2118       C  0.29653148  0.19601853  0.06904486    -0.21600
C2119       C  0.47720731  0.13057437  0.13486555    -0.21600
C2120       C  0.47513325  0.10699884  0.10752636    -0.21600
C2121       C  0.40401318  0.24517437  0.09546695    -0.22700
C2122       C  0.43270306  0.22850071  0.10267988    -0.22700
C2123       C  0.36413886  0.11092267  0.00963880    -0.22700
C2124       C  0.39500964  0.09861168  0.01192792    -0.22700
C2125       C  0.35122639  0.24019130  0.12137171    -0.18000
C2126       C  0.33021947  0.14873251  0.04465596    -0.18000
C2127       C  0.43947204  0.10299415  0.05437078    -0.18000
C2128       C  0.44882317  0.18946467  0.14890636    -0.18000
H2129       H  0.28480348  0.23835718  0.10408292     0.14900
H2130       H  0.27312335  0.18672983  0.06234930     0.14900
H2131       H  0.49298189  0.12793836  0.15639450     0.14900
H2132       H  0.48870710  0.08291101  0.10488574     0.14900
H2133       H  0.39700929  0.25665020  0.07208298     0.13200
H2134       H  0.45267473  0.22470334  0.08607078     0.13200
H2135       H  0.34660662  0.10376429  0.99081201     0.13200
H2136       H  0.40548182  0.08020273  0.99467030     0.13200
H2137       H  0.37367248  0.19227597  0.07522290     0.26400
H2138       H  0.42326728  0.16614408  0.08778709     0.26400
N2139       N  0.09032846  0.14181271  0.89808081    -0.36300
N2140       N  0.09496955  0.18870006  0.84946539    -0.56900
N2141       N  0.12449733  0.13751771  0.80401011    -0.36300
N2142       N  0.11932164  0.08616983  0.85450888    -0.56900
C2143       C  0.07004695  0.16716606  0.90883663     0.27200
C2144       C  0.07986911  0.11186042  0.90935966     0.27200
C2145       C  0.10559333  0.15649100  0.78295871     0.27200
C2146       C  0.13370185  0.10796942  0.78806632     0.27200
C2147       C  0.08928013  0.21203466  0.87379242     0.35900
C2148       C  0.09941059  0.20584820  0.82159791     0.35900
C2149       C  0.12196119  0.07397655  0.88598678     0.35900
C2150       C  0.14498795  0.07330709  0.83763574     0.35900
C2151       C  0.04618334  0.15320957  0.92750448    -0.21600
C2152       C  0.05247759  0.11799283  0.92789357    -0.21600
C2153       C  0.10295307  0.13874577  0.75272193    -0.21600
C2154       C  0.12153032  0.10835289  0.75567695    -0.21600
C2155       C  0.09124799  0.24520175  0.86180537    -0.22700
C2156       C  0.09740245  0.24126777  0.82827694    -0.22700
C2157       C  0.14925580  0.05305908  0.88905828    -0.22700
C2158       C  0.16362509  0.05242530  0.85842130    -0.22700
C2159       C  0.07420313  0.20247061  0.90284638    -0.18000
C2160       C  0.10026795  0.08270947  0.91187866    -0.18000
C2161       C  0.15137846  0.08070721  0.80375213    -0.18000
C2162       C  0.09239079  0.18979454  0.79109263    -0.18000
H2163       H  0.02703182  0.16698525  0.94034515     0.14900
H2164       H  0.03998618  0.09935396  0.94226597     0.14900
H2165       H  0.08965127  0.14710187  0.73075542     0.14900
H2166       H  0.12443524  0.08821114  0.73683289     0.14900
H2167       H  0.08538908  0.26924809  0.87477685     0.13200
H2168       H  0.09724471  0.26187309  0.81034840     0.13200
H2169       H  0.15850842  0.04029039  0.91113891     0.13200
H2170       H  0.18566430  0.03873424  0.85254800     0.13200
H2171       H  0.11233584  0.14493082  0.88682126     0.26400
H2172       H  0.13147679  0.14420797  0.82830243     0.26400
N2173       N  0.13203275  0.81621577  0.19914249    -0.36300
N2174       N  0.17930143  0.86433165  0.18338974    -0.56900
N2175       N  0.18836285  0.83215222  0.11853513    -0.36300
N2176       N  0.14140036  0.78019744  0.13224931    -0.56900
C2177       C  0.12156024  0.84738791  0.21085283     0.27200
C2178       C  0.10568660  0.80041723  0.18798294     0.27200
C2179       C  0.19532092  0.86557749  0.11324053     0.27200
C2180       C  0.18119421  0.81827506  0.08824003     0.27200
C2181       C  0.17199609  0.87601537  0.21417739     0.35900
C2182       C  0.20171360  0.88482193  0.17201641     0.35900
C2183       C  0.12237080  0.75728850  0.14752071     0.35900
C2184       C  0.15445485  0.76521779  0.10439089     0.35900
C2185       C  0.08874306  0.85136222  0.20574338    -0.21600
C2186       C  0.07890254  0.82144835  0.19158967    -0.21600
C2187       C  0.19267405  0.87258864  0.07939231    -0.21600
C2188       C  0.18363303  0.84282516  0.06369460    -0.21600
C2189       C  0.19182381  0.90247278  0.22380320    -0.22700
C2190       C  0.21028902  0.90856273  0.19660652    -0.22700
C2191       C  0.12297902  0.72683783  0.12879667    -0.22700
C2192       C  0.14329670  0.73173775  0.10173668    -0.22700
C2193       C  0.14100595  0.87246732  0.22579217    -0.18000
C2194       C  0.10435001  0.76629332  0.17712900    -0.18000
C2195       C  0.17456951  0.78339610  0.08159263    -0.18000
C2196       C  0.20442856  0.89023683  0.13778939    -0.18000
H2197       H  0.07328543  0.87355368  0.21078864     0.14900
H2198       H  0.05490345  0.81525083  0.18452597     0.14900
H2199       H  0.19709321  0.89664261  0.06711110     0.14900
H2200       H  0.17933616  0.83952621  0.03711305     0.14900
H2201       H  0.18957436  0.91907910  0.24569844     0.13200
H2202       H  0.22516737  0.93066893  0.19371691     0.13200
H2203       H  0.11000500  0.70377494  0.13378644     0.13200
H2204       H  0.14861708  0.71297490  0.08216145     0.13200
H2205       H  0.15526818  0.80562434  0.20022516     0.26400
H2206       H  0.18964852  0.81900340  0.14106917     0.26400
N2207       N  0.83733633  0.14872405  0.04772656    -0.36300
N2208       N  0.89602050  0.07306218  0.06575769    -0.56900
N2209       N  0.85941071  0.02918771  0.13682023    -0.36300
N2210       N  0.79814058  0.09698689  0.10795505    -0.56900
C2211       C  0.85814259  0.12416690  0.03648233     0.27200
C2212       C  0.80928707  0.13309982  0.05079039     0.27200
C2213       C  0.87575302  0.02383101  0.10825840     0.27200
C2214       C  0.82835152  0.03418613  0.12769225     0.27200
C2215       C  0.91015186  0.09906890  0.05098223     0.35900
C2216       C  0.91815403  0.05330799  0.08122881     0.35900
C2217       C  0.77884486  0.12518145  0.10009133     0.35900
C2218       C  0.78761046  0.07974617  0.13508059     0.35900
C2219       C  0.84239134  0.09386269  0.02946136    -0.21600
C2220       C  0.81144847  0.09941390  0.03917847    -0.21600
C2221       C  0.85454069  0.02206289  0.08142085    -0.21600
C2222       C  0.82458909  0.02889339  0.09361528    -0.21600
C2223       C  0.94294824  0.09568784  0.05601506    -0.22700
C2224       C  0.94807987  0.06640717  0.07559024    -0.22700
C2225       C  0.75515918  0.12678299  0.12413342    -0.22700
C2226       C  0.76049369  0.09827786  0.14582135    -0.22700
C2227       C  0.89147364  0.12727657  0.03896486    -0.18000
C2228       C  0.78474554  0.14664776  0.07060058    -0.18000
C2229       C  0.80438234  0.04850836  0.14841362    -0.18000
C2230       C  0.90884167  0.02938904  0.10530749    -0.18000
H2231       H  0.85274542  0.06962977  0.02051767     0.14900
H2232       H  0.79313587  0.08037967  0.04026906     0.14900
H2233       H  0.86061459  0.01858587  0.05549814     0.14900
H2234       H  0.80268966  0.03136145  0.07901620     0.14900
H2235       H  0.96078469  0.11361848  0.04867914     0.13200
H2236       H  0.97065398  0.05748668  0.08635289     0.13200
H2237       H  0.73578919  0.14583385  0.12567779     0.13200
H2238       H  0.74609233  0.09216452  0.16699135     0.13200
H2239       H  0.84279099  0.17320204  0.05718014     0.26400
H2240       H  0.86940617  0.03310540  0.16045440     0.26400
C2241       C  0.26713595  0.08714883  0.07044502    -0.05500
C2242       C  0.24704637  0.08623487  0.04204752     0.00400
C2243       C  0.25532685  0.10506537  0.01324122    -0.08200
C2244       C  0.28298985  0.12493226  0.01475622    -0.05500
C2245       C  0.30248216  0.12587040  0.04344185     0.00400
C2246       C  0.29476167  0.10647282  0.07172977    -0.08100
C2247       C  0.31511352  0.10668217  0.10363795     0.62300
H2248       H  0.26067359  0.07301822  0.09230353     0.13000
H2249       H  0.28959465  0.14022829  0.99368174     0.13000
C2250       C  0.23598980  0.10393973  0.98078183     0.62500
F2251       F  0.30434410  0.08392247  0.12697344    -0.22600
F2252       F  0.31428594  0.13932244  0.11806315    -0.20000
F2253       F  0.34633389  0.09704315  0.09663738    -0.19600
F2254       F  0.25101374  0.12049435  0.95525724    -0.19700
F2255       F  0.20658281  0.12031302  0.98511813    -0.20000
F2256       F  0.23184504  0.07000678  0.97069761    -0.22700
C2257       C  0.22561547  0.97513006  0.10007501    -0.05500
C2258       C  0.19488670  0.98762709  0.09100217     0.00400
C2259       C  0.16758959  0.97067875  0.10275953    -0.08200
C2260       C  0.17262531  0.94075307  0.12138834    -0.05500
C2261       C  0.20332240  0.92658333  0.12713275     0.00400
C2262       C  0.23032819  0.94480836  0.11790751    -0.08100
C2263       C  0.26431289  0.93373232  0.12598737     0.62300
H2264       H  0.24657174  0.98832985  0.09207235     0.13000
H2265       H  0.15241702  0.92625187  0.12933210     0.13000
C2266       C  0.13326422  0.98234134  0.09496293     0.62500
F2267       F  0.28091012  0.92799948  0.09673561    -0.22600
F2268       F  0.26571757  0.90423044  0.14448114    -0.20000
F2269       F  0.27886639  0.95959824  0.14434842    -0.19600
F2270       F  0.12625341  0.97609772  0.06157051    -0.19700
F2271       F  0.12888860  0.01713058  0.10246927    -0.20000
F2272       F  0.11152797  0.96464896  0.11340304    -0.22700
C2273       C  0.12777288  0.03018965  0.98667208    -0.05500
C2274       C  0.13817461  0.05732090  0.00730404     0.00400
C2275       C  0.12758507  0.09134695  0.00128522    -0.08200
C2276       C  0.11437382  0.09848821  0.97010025    -0.05500
C2277       C  0.10768370  0.07187029  0.94666412     0.00400
C2278       C  0.11133484  0.03698077  0.95660608    -0.08100
C2279       C  0.09977852  0.00632539  0.93635339     0.62300
H2280       H  0.13460297  0.00374679  0.99270054     0.13000
H2281       H  0.11042990  0.12539865  0.96380106     0.13000
C2282       C  0.13091282  0.12063960  0.02664535     0.62500
F2283       F  0.12567764  0.98515305  0.92799672    -0.22600
F2284       F  0.08341669  0.01584110  0.90753600    -0.20000
F2285       F  0.07939397  0.98773685  0.95553502    -0.19600
F2286       F  0.15374713  0.14304455  0.01644992    -0.19700
F2287       F  0.13923338  0.10871980  0.05810984    -0.20000
F2288       F  0.10200446  0.13865531  0.02920601    -0.22700
C2289       C  0.20156781  0.14572897  0.27478435    -0.05500
C2290       C  0.23195074  0.15674338  0.28411876     0.00400
C2291       C  0.24716333  0.14299896  0.31289459    -0.08200
C2292       C  0.22953034  0.12130274  0.33310743    -0.05500
C2293       C  0.19626403  0.11860448  0.32821539     0.00400
C2294       C  0.18177537  0.13154137  0.29824055    -0.08100
C2295       C  0.14575581  0.13618763  0.29235338     0.62300
H2296       H  0.19134643  0.15485607  0.25136826     0.13000
H2297       H  0.24020515  0.11114380  0.35587721     0.13000
C2298       C  0.28045163  0.15326596  0.32354589     0.62500
F2299       F  0.13858478  0.15901762  0.26682248    -0.22600
F2300       F  0.13114184  0.14972720  0.32056086    -0.20000
F2301       F  0.13269271  0.10511528  0.28326823    -0.19600
F2302       F  0.28129151  0.18870732  0.32820711    -0.19700
F2303       F  0.30175187  0.14309650  0.29914078    -0.20000
F2304       F  0.29019601  0.13783179  0.35311225    -0.22700
C2305       C  0.30178425  0.26015573  0.19770818    -0.05500
C2306       C  0.29827505  0.22675441  0.21067228     0.00400
C2307       C  0.31678256  0.19870553  0.19701120    -0.08200
C2308       C  0.33469862  0.20462759  0.16848223    -0.05500
C2309       C  0.33511174  0.23727409  0.15377992     0.00400
C2310       C  0.31946539  0.26564673  0.16899264    -0.08100
C2311       C  0.32056009  0.30107913  0.15384297     0.62300
H2312       H  0.28884610  0.28185985  0.20898216     0.13000
H2313       H  0.34782731  0.18348018  0.15647901     0.13000
C2314       C  0.31783327  0.16275417  0.21164100     0.62500
F2315       F  0.30573927  0.30085390  0.12274385    -0.22600
F2316       F  0.35201230  0.30992291  0.15027229    -0.20000
F2317       F  0.30533221  0.32579795  0.17363506    -0.19600
F2318       F  0.28818546  0.14808946  0.20870474    -0.19700
F2319       F  0.32719786  0.16496414  0.24480411    -0.20000
F2320       F  0.33961060  0.14083521  0.19565240    -0.22700
C2321       C  0.00747656  0.05321553  0.28732144    -0.05500
C2322       C  0.00033042  0.02025104  0.29856476     0.00400
C2323       C  0.01112724  0.00988634  0.33050098    -0.08200
C2324       C  0.03412917  0.02945206  0.34700015    -0.05500
C2325       C  0.04573961  0.05933083  0.33264521     0.00400
C2326       C  0.03133220  0.07240968  0.30302214    -0.08100
C2327       C  0.04115248  0.10496650  0.28561489     0.62300
H2328       H  0.99854818  0.06150111  0.26306967     0.13000
H2329       H  0.04362475  0.02085578  0.37089671     0.13000
C2330       C  0.00104978  0.97675270  0.34626570     0.62500
F2331       F  0.05159759  0.09620494  0.25389264    -0.22600
F2332       F  0.06530378  0.12221364  0.30202402    -0.20000
F2333       F  0.01498579  0.12740776  0.28276744    -0.19600
F2334       F  0.02717231  0.95423203  0.34931439    -0.19700
F2335       F  0.97747962  0.96073748  0.32762211    -0.20000
F2336       F  0.98923584  0.98409443  0.37769043    -0.22700
C2337       C  0.96386340  0.02966910  0.18178247    -0.05500
C2338       C  0.97217627  0.99450029  0.18414752     0.00400
C2339       C  0.96132759  0.97112739  0.15930333    -0.08200
C2340       C  0.94030417  0.98369771  0.13412008    -0.05500
C2341       C  0.93095627  0.01880359  0.13270354     0.00400
C2342       C  0.94297382  0.04232282  0.15700361    -0.08100
C2343       C  0.93507761  0.08080253  0.15829131     0.62300
H2344       H  0.97339262  0.04758042  0.20023934     0.13000
H2345       H  0.93110263  0.96625033  0.11509906     0.13000
C2346       C  0.97182782  0.93337669  0.15934127     0.62500
F2347       F  0.93113871  0.09149753  0.19112437    -0.22600
F2348       F  0.90741629  0.08978941  0.14087692    -0.20000
F2349       F  0.96032963  0.09822544  0.14548619    -0.19600
F2350       F  0.96394479  0.91855261  0.18918528    -0.19700
F2351       F  0.00447900  0.93036203  0.15503171    -0.20000
F2352       F  0.95741426  0.91527192  0.13362767    -0.22700
C2353       C  0.07276335  0.91676475  0.26570597    -0.05500
C2354       C  0.06646773  0.94128994  0.24098497     0.00400
C2355       C  0.09133312  0.95147705  0.22020535    -0.08200
C2356       C  0.11987136  0.93167708  0.22044193    -0.05500
C2357       C  0.12380811  0.90265834  0.24100353     0.00400
C2358       C  0.10136590  0.89738337  0.26630233    -0.08100
C2359       C  0.10440479  0.86850557  0.29107556     0.62300
H2360       H  0.05437769  0.91114325  0.28345055     0.13000
H2361       H  0.13731468  0.93605863  0.20142731     0.13000
C2362       C  0.08790264  0.98284230  0.19802747     0.62500
F2363       F  0.08060133  0.84516303  0.28476158    -0.22600
F2364       F  0.10074438  0.88224951  0.32290474    -0.20000
F2365       F  0.13367853  0.85118665  0.28949452    -0.19600
F2366       F  0.07747804  0.01122838  0.21673408    -0.19700
F2367       F  0.06620847  0.97666958  0.17241686    -0.20000
F2368       F  0.11672010  0.99081339  0.18398609    -0.22700
C2369       C  0.18606778  0.27152106  0.20530385    -0.05500
C2370       C  0.19072932  0.26374612  0.23916603     0.00400
C2371       C  0.16922272  0.27747141  0.26326621    -0.08200
C2372       C  0.14413427  0.29969912  0.25244334    -0.05500
C2373       C  0.14114023  0.30936215  0.21893754     0.00400
C2374       C  0.16203428  0.29484874  0.19473756    -0.08100
C2375       C  0.16027309  0.30556340  0.15830609     0.62300
H2376       H  0.20241753  0.26022355  0.18721389     0.13000
H2377       H  0.12808001  0.31183275  0.27035263     0.13000
C2378       C  0.17386123  0.27064630  0.30028076     0.62500
F2379       F  0.12987251  0.30083712  0.14544685    -0.22600
F2380       F  0.18150235  0.28638312  0.13879269    -0.20000
F2381       F  0.16768891  0.33995284  0.15566501    -0.19600
F2382       F  0.20493565  0.27739961  0.31002837    -0.19700
F2383       F  0.16758468  0.23655040  0.30667285    -0.20000
F2384       F  0.15365705  0.29139795  0.31954999    -0.22700
C2385       C  0.97002950  0.31494355  0.09768403    -0.05500
C2386       C  0.98515751  0.32208647  0.06738255     0.00400
C2387       C  0.01158306  0.34417877  0.06800582    -0.08200
C2388       C  0.02394213  0.35453290  0.09897422    -0.05500
C2389       C  0.00760366  0.34956631  0.12873856     0.00400
C2390       C  0.98038775  0.32880909  0.12836615    -0.08100
C2391       C  0.96184702  0.31956032  0.15908263     0.62300
H2392       H  0.94980816  0.29813306  0.09777077     0.13000
H2393       H  0.04618955  0.36810408  0.09993414     0.13000
C2394       C  0.02595195  0.35901601  0.03688946     0.62500
F2395       F  0.92998636  0.32903170  0.15449443    -0.22600
F2396       F  0.97283828  0.33544033  0.18797780    -0.20000
F2397       F  0.96407849  0.28417452  0.16334695    -0.19600
F2398       F  0.00194005  0.36903469  0.01462076    -0.19700
F2399       F  0.04631161  0.33485886  0.02198258    -0.20000
F2400       F  0.04334289  0.38808508  0.04451951    -0.22700
C2401       C  0.04387781  0.26155213  0.97169919    -0.05500
C2402       C  0.01237298  0.26799403  0.96019651     0.00400
C2403       C  0.00366607  0.25873822  0.92703086    -0.08200
C2404       C  0.02503394  0.23814849  0.90844561    -0.05500
C2405       C  0.05513280  0.22852356  0.92147398     0.00400
C2406       C  0.06576739  0.24215941  0.95236040    -0.08100
C2407       C  0.09979052  0.23546970  0.96471545     0.62300
H2408       H  0.05051560  0.26935338  0.99688833     0.13000
H2409       H  0.01790506  0.22873668  0.88385052     0.13000
C2410       C  0.97234134  0.26956711  0.91026143     0.62500
F2411       F  0.10573302  0.25212619  0.99492063    -0.22600
F2412       F  0.12080571  0.24745420  0.94156209    -0.20000
F2413       F  0.10549112  0.20041864  0.96883987    -0.19600
F2414       F  0.95450019  0.29282242  0.92936591    -0.19700
F2415       F  0.95464318  0.24066496  0.90361310    -0.20000
F2416       F  0.97854960  0.28523241  0.88035968    -0.22700
C2417       C  0.92399297  0.21686341  0.05449859    -0.05500
C2418       C  0.92285349  0.22948248  0.02177785     0.00400
C2419       C  0.90792544  0.21001788  0.99625830    -0.08200
C2420       C  0.90011492  0.17599014  0.00278738    -0.05500
C2421       C  0.90408838  0.16204723  0.03471080     0.00400
C2422       C  0.91363172  0.18373970  0.06179320    -0.08100
C2423       C  0.91231626  0.17294409  0.09810488     0.62300
H2424       H  0.93450534  0.23245931  0.07422900     0.13000
H2425       H  0.88965856  0.16041094  0.98290869     0.13000
C2426       C  0.89804898  0.22429492  0.96261093     0.62500
F2427       F  0.91951902  0.19988670  0.11986766    -0.22600
F2428       F  0.93410551  0.14641346  0.10413973    -0.20000
F2429       F  0.88205487  0.16232267  0.10546352    -0.19600
F2430       F  0.91338772  0.20547182  0.93771170    -0.19700
F2431       F  0.90433103  0.25891586  0.95943749    -0.20000
F2432       F  0.86552571  0.22089246  0.95857312    -0.22700
C2433       C  0.93337459  0.23540379  0.53805733    -0.05500
C2434       C  0.93629066  0.25916159  0.51239633     0.00400
C2435       C  0.91314804  0.28589903  0.50764552    -0.08200
C2436       C  0.89018314  0.29098957  0.53198954    -0.05500
C2437       C  0.88951783  0.27012373  0.56040313     0.00400
C2438       C  0.90925843  0.23983097  0.56175665    -0.08100
C2439       C  0.90654063  0.21270410  0.58824649     0.62300
H2440       H  0.95037111  0.21381591  0.54001177     0.13000
H2441       H  0.87434110  0.31336517  0.53020885     0.13000
C2442       C  0.91355143  0.31016751  0.47803938     0.62500
F2443       F  0.90471770  0.18046181  0.57306491    -0.22600
F2444       F  0.87955528  0.21803553  0.60731904    -0.20000
F2445       F  0.93333719  0.21293195  0.60884773    -0.19600
F2446       F  0.88724952  0.33273494  0.47750937    -0.19700
F2447       F  0.91316421  0.29133467  0.44844977    -0.20000
F2448       F  0.94067093  0.32960733  0.47951529    -0.22700
C2449       C  0.99214666  0.18823368  0.35931633    -0.05500
C2450       C  0.96188540  0.17388097  0.35910006     0.00400
C2451       C  0.93621023  0.19099117  0.37543180    -0.08200
C2452       C  0.94332903  0.21795775  0.39737701    -0.05500
C2453       C  0.97504462  0.22726270  0.40367743     0.00400
C2454       C  0.99922371  0.21565933  0.38131761    -0.08100
C2455       C  0.03207349  0.23100777  0.38089355     0.62300
H2456       H  0.01069022  0.17581897  0.34445138     0.13000
H2457       H  0.92435688  0.22991712  0.41196988     0.13000
C2458       C  0.90181672  0.17977371  0.37103923     0.62500
F2459       F  0.04972498  0.21848856  0.35413386    -0.22600
F2460       F  0.04879596  0.22302890  0.40990730    -0.20000
F2461       F  0.02894896  0.26650276  0.37781739    -0.19600
F2462       F  0.88097738  0.19957408  0.39045842    -0.19700
F2463       F  0.89907617  0.14566355  0.37996993    -0.20000
F2464       F  0.89227461  0.18346224  0.33807232    -0.22700
C2465       C  0.05347876  0.36333161  0.49327131    -0.05500
C2466       C  0.07258594  0.36445120  0.46505631     0.00400
C2467       C  0.07702641  0.33466392  0.44443043    -0.08200
C2468       C  0.05835561  0.30634703  0.45034709    -0.05500
C2469       C  0.03569932  0.30673594  0.47574757     0.00400
C2470       C  0.03569823  0.33413112  0.49996890    -0.08100
C2471       C  0.01829308  0.33288974  0.53293416     0.62300
H2472       H  0.05238949  0.38575884  0.50979668     0.13000
H2473       H  0.06067381  0.28384678  0.43419818     0.13000
C2474       C  0.10134055  0.33209453  0.41646868     0.62500
F2475       F  0.02752608  0.35908169  0.55467190    -0.22600
F2476       F  0.02542110  0.30181443  0.54837050    -0.20000
F2477       F  0.98571046  0.33663462  0.52777870    -0.19600
F2478       F  0.13179764  0.33303230  0.42992962    -0.19700
F2479       F  0.09678851  0.35882026  0.39433691    -0.20000
F2480       F  0.09924773  0.30148339  0.39829309    -0.22700
C2481       C  0.92802645  0.61127924  0.22301706    -0.05500
C2482       C  0.94416161  0.60224646  0.25303496     0.00400
C2483       C  0.93143985  0.61371789  0.28387708    -0.08200
C2484       C  0.90097335  0.62952305  0.28369379    -0.05500
C2485       C  0.88351139  0.63560149  0.25383837     0.00400
C2486       C  0.89756169  0.62750275  0.22300432    -0.08100
C2487       C  0.87966374  0.63480136  0.19069111     0.62300
H2488       H  0.93836043  0.60285474  0.19953773     0.13000
H2489       H  0.89018154  0.63729809  0.30713696     0.13000
C2490       C  0.94867598  0.60764607  0.31699479     0.62500
F2491       F  0.89697062  0.62415401  0.16309320    -0.22600
F2492       F  0.87310293  0.66987185  0.18860493    -0.20000
F2493       F  0.85129300  0.61750979  0.19002358    -0.19600
F2494       F  0.97933743  0.61988218  0.31573191    -0.19700
F2495       F  0.94982159  0.57273294  0.32369742    -0.20000
F2496       F  0.93341985  0.62463358  0.34320551    -0.22700
C2497       C  0.95233213  0.45561726  0.22982542    -0.05500
C2498       C  0.95681569  0.48659449  0.21306607     0.00400
C2499       C  0.93951390  0.49346489  0.18318072    -0.08200
C2500       C  0.91516105  0.47156997  0.17359628    -0.05500
C2501       C  0.91072772  0.44033204  0.18987939     0.00400
C2502       C  0.93005333  0.43162933  0.21806395    -0.08100
C2503       C  0.92626456  0.39839343  0.23694529     0.62300
H2504       H  0.96523777  0.45101448  0.25307238     0.13000
H2505       H  0.90153867  0.47710580  0.15090719     0.13000
C2506       C  0.94675070  0.52265198  0.15988825     0.62500
F2507       F  0.95289529  0.39103633  0.25681999    -0.22600
F2508       F  0.92226175  0.37063802  0.21536559    -0.20000
F2509       F  0.89992905  0.40187807  0.25718053    -0.19600
F2510       F  0.97490636  0.53849431  0.16847428    -0.19700
F2511       F  0.92185829  0.54695259  0.16015787    -0.20000
F2512       F  0.95002291  0.50956447  0.12774781    -0.22700
C2513       C  0.02594738  0.53523928  0.33072910    -0.05500
C2514       C  0.03316015  0.52819796  0.29716045     0.00400
C2515       C  0.06111356  0.50850401  0.28931943    -0.08200
C2516       C  0.07912681  0.49381119  0.31539026    -0.05500
C2517       C  0.07136465  0.49973640  0.34901029     0.00400
C2518       C  0.04466846  0.52154036  0.35701961    -0.08100
C2519       C  0.03408130  0.53064777  0.39223701     0.62300
H2520       H  0.00458451  0.55033937  0.33665042     0.13000
H2521       H  0.09965803  0.47724860  0.30936339     0.13000
C2522       C  0.07281057  0.50171771  0.25411520     0.62500
F2523       F  0.03056668  0.56617043  0.39561906    -0.22600
F2524       F  0.05537478  0.51934392  0.41663828    -0.20000
F2525       F  0.00485883  0.51615123  0.39766031    -0.19600
F2526       F  0.05789488  0.52314140  0.23099082    -0.19700
F2527       F  0.06768424  0.46761855  0.24535685    -0.20000
F2528       F  0.10524802  0.50732514  0.25291553    -0.22700
C2529       C  0.77880378  0.40104833  0.52066151    -0.05500
C2530       C  0.80968569  0.39851726  0.53413443     0.00400
C2531       C  0.83662959  0.40396652  0.51418116    -0.08200
C2532       C  0.83154681  0.40990337  0.48023440    -0.05500
C2533       C  0.80072357  0.41187411  0.46644234     0.00400
C2534       C  0.77359888  0.40855054  0.48692738    -0.08100
C2535       C  0.73947414  0.41439510  0.47414788     0.62300
H2536       H  0.75888361  0.39675666  0.53685821     0.13000
H2537       H  0.85164574  0.41369682  0.46412710     0.13000
C2538       C  0.87042961  0.40490324  0.52866387     0.62500
F2539       F  0.71755817  0.41307507  0.49959103    -0.22600
F2540       F  0.73170209  0.38940840  0.45074615    -0.20000
F2541       F  0.73622801  0.44656804  0.45992240    -0.19600
F2542       F  0.87836276  0.37465736  0.54489157    -0.19700
F2543       F  0.87257345  0.43226487  0.55106913    -0.20000
F2544       F  0.89287334  0.40912725  0.50415293    -0.22700
C2545       C  0.78376379  0.55184932  0.37396063    -0.05500
C2546       C  0.81140004  0.56361384  0.35952853     0.00400
C2547       C  0.83946190  0.54219577  0.35830057    -0.08200
C2548       C  0.83740197  0.50781374  0.36818810    -0.05500
C2549       C  0.80931882  0.49635696  0.38198968     0.00400
C2550       C  0.78286722  0.51915494  0.38730016    -0.08100
C2551       C  0.75505471  0.51020358  0.40929377     0.62300
H2552       H  0.76428582  0.56994168  0.37842218     0.13000
H2553       H  0.85758948  0.48986247  0.36562187     0.13000
C2554       C  0.87150770  0.55590737  0.34824104     0.62500
F2555       F  0.73287923  0.53729555  0.41230464    -0.22600
F2556       F  0.76666130  0.50272473  0.44094579    -0.20000
F2557       F  0.73925128  0.48214255  0.39640823    -0.19600
F2558       F  0.87806371  0.58551808  0.36658170    -0.19700
F2559       F  0.87109213  0.56342008  0.31467487    -0.20000
F2560       F  0.89617967  0.53206901  0.35405586    -0.22700
C2561       C  0.69745445  0.37082147  0.37559320    -0.05500
C2562       C  0.67724269  0.39680480  0.36153508     0.00400
C2563       C  0.69088825  0.42531545  0.34607730    -0.08200
C2564       C  0.72425580  0.42758810  0.34695824    -0.05500
C2565       C  0.74392896  0.40206452  0.36223192     0.00400
C2566       C  0.73043676  0.37142849  0.37273693    -0.08100
C2567       C  0.75026762  0.33914958  0.38098631     0.62300
H2568       H  0.68717985  0.34801951  0.38596781     0.13000
H2569       H  0.73471232  0.45076805  0.33765902     0.13000
C2570       C  0.67205428  0.45413735  0.32888200     0.62500
F2571       F  0.73804492  0.31121074  0.36364361    -0.22600
F2572       F  0.74916866  0.33286799  0.41480801    -0.20000
F2573       F  0.78182530  0.34195255  0.37186698    -0.19600
F2574       F  0.67865953  0.48525269  0.34459616    -0.19700
F2575       F  0.63941280  0.45015806  0.32915697    -0.20000
F2576       F  0.68155333  0.45540901  0.29605761    -0.22700
C2577       C  0.84723199  0.12516803  0.29114902    -0.05500
C2578       C  0.85985461  0.11511562  0.25997921     0.00400
C2579       C  0.84187389  0.12126934  0.23060211    -0.08200
C2580       C  0.81106494  0.13591388  0.23314754    -0.05500
C2581       C  0.79915489  0.14744518  0.26399029     0.00400
C2582       C  0.81765913  0.14289570  0.29352280    -0.08100
C2583       C  0.80838318  0.16043412  0.32635168     0.62300
H2584       H  0.86166272  0.12061565  0.31343038     0.13000
H2585       H  0.79708099  0.14132756  0.21071350     0.13000
C2586       C  0.85626848  0.11445723  0.19690825     0.62500
F2587       F  0.82867621  0.15053457  0.35233189    -0.22600
F2588       F  0.77779646  0.15234043  0.33492875    -0.20000
F2589       F  0.80973107  0.19586184  0.32308953    -0.19600
F2590       F  0.86597746  0.08028363  0.19484975    -0.19700
F2591       F  0.88222491  0.13521529  0.19339810    -0.20000
F2592       F  0.83494192  0.12142233  0.17102286    -0.22700
C2593       C  0.69713139  0.19915263  0.33201087    -0.05500
C2594       C  0.69343333  0.19356390  0.29751690     0.00400
C2595       C  0.66426232  0.20254604  0.28136209    -0.08200
C2596       C  0.64235722  0.22394673  0.29854344    -0.05500
C2597       C  0.64934478  0.23563280  0.33112379     0.00400
C2598       C  0.67550517  0.22110027  0.34913543    -0.08100
C2599       C  0.68235162  0.23217414  0.38493707     0.62300
H2600       H  0.71952639  0.19138705  0.34402468     0.13000
H2601       H  0.62135428  0.23420912  0.28549271     0.13000
C2602       C  0.65768990  0.19343103  0.24491301     0.62500
F2603       F  0.70615150  0.21158136  0.39949140    -0.22600
F2604       F  0.65503983  0.23002082  0.40362027    -0.20000
F2605       F  0.69195394  0.26600923  0.38575060    -0.19600
F2606       F  0.68126217  0.17179419  0.23154978    -0.19700
F2607       F  0.65545072  0.22327619  0.22648259    -0.20000
F2608       F  0.62927111  0.17656748  0.24180348    -0.22700
C2609       C  0.79755434  0.27082895  0.24145827    -0.05500
C2610       C  0.76599649  0.26204233  0.23384608     0.00400
C2611       C  0.74754133  0.28198986  0.21092926    -0.08200
C2612       C  0.76260075  0.30852656  0.19421289    -0.05500
C2613       C  0.79535966  0.31424944  0.19894880     0.00400
C2614       C  0.81313075  0.29573447  0.22353236    -0.08100
C2615       C  0.84888033  0.29991781  0.22913180     0.62300
H2616       H  0.81078136  0.25594215  0.26004307     0.13000
H2617       H  0.74977834  0.32285589  0.17496170     0.13000
C2618       C  0.71307867  0.27398168  0.20257454     0.62500
F2619       F  0.86167542  0.27596241  0.25133860    -0.22600
F2620       F  0.85452938  0.33242110  0.24217262    -0.20000
F2621       F  0.86486993  0.29539683  0.19936722    -0.19600
F2622       F  0.69491762  0.27837687  0.23090086    -0.19700
F2623       F  0.71116785  0.24027023  0.19089433    -0.20000
F2624       F  0.70020914  0.29556430  0.17826418    -0.22700
C2625       C  0.97844101  0.62347843  0.62955954    -0.05500
C2626       C  0.96516499  0.63959988  0.65798363     0.00400
C2627       C  0.93287930  0.64974386  0.65541725    -0.08200
C2628       C  0.91327566  0.62977453  0.63469789    -0.05500
C2629       C  0.92638225  0.60011480  0.61841316     0.00400
C2630       C  0.95994321  0.59855717  0.61275531    -0.08100
C2631       C  0.97658147  0.56917102  0.59353054     0.62300
H2632       H  0.00425090  0.62151508  0.62843535     0.13000
H2633       H  0.88761163  0.63432889  0.63511077     0.13000
C2634       C  0.91824384  0.67728888  0.67785825     0.62500
F2635       F  0.00951363  0.57102388  0.59580006    -0.22600
F2636       F  0.96818135  0.57028702  0.56019983    -0.20000
F2637       F  0.96820242  0.53775609  0.60607441    -0.19600
F2638       F  0.94097745  0.69171642  0.69884555    -0.19700
F2639       F  0.89491248  0.66319716  0.69706763    -0.20000
F2640       F  0.90452009  0.70313586  0.65845405    -0.22700
C2641       C  0.99706289  0.48382529  0.65744872    -0.05500
C2642       C  0.03048158  0.48150281  0.65536052     0.00400
C2643       C  0.04940094  0.50231547  0.67690496    -0.08200
C2644       C  0.03407558  0.52665812  0.69784459    -0.05500
C2645       C  0.00075975  0.53047698  0.69838339     0.00400
C2646       C  0.98196554  0.50699075  0.67989176    -0.08100
C2647       C  0.94643168  0.50400842  0.68469445     0.62300
H2648       H  0.98281556  0.46586939  0.64296835     0.13000
H2649       H  0.04817380  0.54474409  0.71210277     0.13000
C2650       C  0.08567983  0.50022478  0.67678072     0.62500
F2651       F  0.93041193  0.51125762  0.65515622    -0.22600
F2652       F  0.93498302  0.52593384  0.70963789    -0.20000
F2653       F  0.94012025  0.47050842  0.69352342    -0.19600
F2654       F  0.09607991  0.51321155  0.64712457    -0.19700
F2655       F  0.09675218  0.46642398  0.68012895    -0.20000
F2656       F  0.09897621  0.51941703  0.70264773    -0.22700
C2657       C  0.00006608  0.63974361  0.79786542    -0.05500
C2658       C  0.01519292  0.63064943  0.76796023     0.00400
C2659       C  0.04876620  0.62893152  0.76636900    -0.08200
C2660       C  0.06609020  0.63140262  0.79597833    -0.05500
C2661       C  0.05152508  0.63943817  0.82664695     0.00400
C2662       C  0.01779728  0.64528583  0.82743778    -0.08100
C2663       C  0.99904692  0.65544394  0.85840963     0.62300
H2664       H  0.97416817  0.64096694  0.79846062     0.13000
H2665       H  0.09153587  0.62557930  0.79499408     0.13000
C2666       C  0.06771224  0.62231316  0.73470411     0.62500
F2667       F  0.98011211  0.68444256  0.85174906    -0.22600
F2668       F  0.01821781  0.66298329  0.88574345    -0.20000
F2669       F  0.97943342  0.62881277  0.86656232    -0.19600
F2670       F  0.04922595  0.62402765  0.70586325    -0.19700
F2671       F  0.08266356  0.59005549  0.73622418    -0.20000
F2672       F  0.09090593  0.64687442  0.73255741    -0.22700
C2673       C  0.30179750  0.61086775  0.59777673    -0.05500
C2674       C  0.29676649  0.57592463  0.59129309     0.00400
C2675       C  0.31032069  0.54995697  0.61189228    -0.08200
C2676       C  0.33317049  0.55986019  0.63550737    -0.05500
C2677       C  0.34225620  0.59421318  0.63775770     0.00400
C2678       C  0.32429057  0.62066912  0.62170345    -0.08100
C2679       C  0.32966509  0.65854747  0.62914923     0.62300
H2680       H  0.28937075  0.63013519  0.58266787     0.13000
H2681       H  0.34656384  0.54061618  0.64965515     0.13000
C2682       C  0.30266076  0.51208146  0.60710019     0.62500
F2683       F  0.30975359  0.67985393  0.61007271    -0.22600
F2684       F  0.36083205  0.66657049  0.62267895    -0.20000
F2685       F  0.32332619  0.66527707  0.66241565    -0.19600
F2686       F  0.31030676  0.50112940  0.57508352    -0.19700
F2687       F  0.27049733  0.50761896  0.61220555    -0.20000
F2688       F  0.31949635  0.49133783  0.62942487    -0.22700
C2689       C  0.19394181  0.52503180  0.57195772    -0.05500
C2690       C  0.20519842  0.52490014  0.53894127     0.00400
C2691       C  0.18966685  0.50408396  0.51448456    -0.08200
C2692       C  0.16552088  0.48206450  0.52498559    -0.05500
C2693       C  0.15752180  0.47972053  0.55884554     0.00400
C2694       C  0.17218028  0.50141769  0.58284577    -0.08100
C2695       C  0.16858857  0.49917983  0.62055818     0.62300
H2696       H  0.20428808  0.54193017  0.59079027     0.13000
H2697       H  0.15400957  0.46492700  0.50719262     0.13000
C2698       C  0.19877148  0.50416662  0.47800235     0.62500
F2699       F  0.19816190  0.49134179  0.63488819    -0.22600
F2700       F  0.14794732  0.47440164  0.63051000    -0.20000
F2701       F  0.15783636  0.53087767  0.63300911    -0.19600
F2702       F  0.23009059  0.49245823  0.47453399    -0.19700
F2703       F  0.19520034  0.53728232  0.46579083    -0.20000
F2704       F  0.17959218  0.48302183  0.45872488    -0.22700
C2705       C  0.36269442  0.72835042  0.74733826    -0.05500
C2706       C  0.34154495  0.71742826  0.77083863     0.00400
C2707       C  0.35265586  0.69358045  0.79544224    -0.08200
C2708       C  0.38291159  0.67731041  0.79164479    -0.05500
C2709       C  0.39917805  0.68022981  0.76167721     0.00400
C2710       C  0.38894319  0.70693759  0.73910350    -0.08100
C2711       C  0.39831801  0.70991179  0.70296302     0.62300
H2712       H  0.35415743  0.74746698  0.72946917     0.13000
H2713       H  0.39064990  0.65703676  0.80858533     0.13000
C2714       C  0.33120755  0.68086381  0.82244865     0.62500
F2715       F  0.40583366  0.74370544  0.69664005    -0.22600
F2716       F  0.37229077  0.70156805  0.68317982    -0.20000
F2717       F  0.42344378  0.68872066  0.69359116    -0.19600
F2718       F  0.31192012  0.65505791  0.81029021    -0.19700
F2719       F  0.31264922  0.70788538  0.83532566    -0.20000
F2720       F  0.34922932  0.66674604  0.84794052    -0.22700
C2721       C  0.21162173  0.62607219  0.80037028    -0.05500
C2722       C  0.21061661  0.64340877  0.83157206     0.00400
C2723       C  0.22616518  0.67504907  0.83657092    -0.08200
C2724       C  0.24126899  0.68884102  0.80947783    -0.05500
C2725       C  0.24199655  0.67194512  0.77830893     0.00400
C2726       C  0.22757530  0.63999596  0.77330107    -0.08100
C2727       C  0.22841550  0.62181344  0.73956581     0.62300
H2728       H  0.19869124  0.60240040  0.79708409     0.13000
H2729       H  0.25288183  0.71339367  0.81229719     0.13000
C2730       C  0.22624311  0.69495925  0.86974567     0.62500
F2731       F  0.21253454  0.59096754  0.73981066    -0.22600
F2732       F  0.25977934  0.61478978  0.73077388    -0.20000
F2733       F  0.21399675  0.64285908  0.71575928    -0.19600
F2734       F  0.24344654  0.67638678  0.89340759    -0.19700
F2735       F  0.19543788  0.70099110  0.88070269    -0.20000
F2736       F  0.24030410  0.72673190  0.86720855    -0.22700
C2737       C  0.22561524  0.79036214  0.76272094    -0.05500
C2738       C  0.24151255  0.77911951  0.73386821     0.00400
C2739       C  0.22834114  0.78720191  0.70222274    -0.08200
C2740       C  0.19766478  0.80302827  0.70042033    -0.05500
C2741       C  0.17982217  0.81025477  0.72937568     0.00400
C2742       C  0.19470221  0.80543130  0.76119916    -0.08100
C2743       C  0.17759224  0.81415105  0.79355691     0.62300
H2744       H  0.23630921  0.78374541  0.78669461     0.13000
H2745       H  0.18703974  0.80908717  0.67630868     0.13000
C2746       C  0.24704485  0.77923358  0.67078596     0.62500
F2747       F  0.19491071  0.80290297  0.82129118    -0.22600
F2748       F  0.14831839  0.79855886  0.79360976    -0.20000
F2749       F  0.17314637  0.84951627  0.79673533    -0.19600
F2750       F  0.25509842  0.74439106  0.66850422    -0.19700
F2751       F  0.27470952  0.79786815  0.67186991    -0.20000
F2752       F  0.22978379  0.78810954  0.64226330    -0.22700
C2753       C  0.28823656  0.62825189  0.43216306    -0.05500
C2754       C  0.27567942  0.60646935  0.40717775     0.00400
C2755       C  0.27973082  0.57032073  0.41150839    -0.08200
C2756       C  0.28504117  0.55773120  0.44364776    -0.05500
C2757       C  0.28791140  0.58052628  0.47062044     0.00400
C2758       C  0.29435440  0.61568821  0.46455750    -0.08100
C2759       C  0.30441182  0.64037065  0.49226625     0.62300
H2760       H  0.28735490  0.65585665  0.42805225     0.13000
H2761       H  0.28285862  0.53042818  0.44842651     0.13000
C2762       C  0.27452392  0.54510869  0.38347361     0.62500
F2763       F  0.33153663  0.62712560  0.50824163    -0.22600
F2764       F  0.28012952  0.64495275  0.51502600    -0.20000
F2765       F  0.31154826  0.67242400  0.47998737    -0.19600
F2766       F  0.29194565  0.55513410  0.35670148    -0.19700
F2767       F  0.24243800  0.54478539  0.37546848    -0.20000
F2768       F  0.28482387  0.51195078  0.39176020    -0.22700
C2769       C  0.12901955  0.68275731  0.48202034    -0.05500
C2770       C  0.12341895  0.65879563  0.45608957     0.00400
C2771       C  0.10407865  0.63024043  0.46161005    -0.08200
C2772       C  0.08824160  0.62878873  0.49194508    -0.05500
C2773       C  0.08806553  0.65682079  0.51456786     0.00400
C2774       C  0.11203199  0.68170019  0.51196951    -0.08100
C2775       C  0.12055613  0.70620572  0.54041379     0.62300
H2776       H  0.14636513  0.70254186  0.47847752     0.13000
H2777       H  0.07311296  0.60738409  0.49663421     0.13000
C2778       C  0.09860639  0.60256263  0.43490495     0.62500
F2779       F  0.15199655  0.71595688  0.53833008    -0.22600
F2780       F  0.11735531  0.69024174  0.57082257    -0.20000
F2781       F  0.10102447  0.73557183  0.53926641    -0.19600
F2782       F  0.08019336  0.57637850  0.44649340    -0.19700
F2783       F  0.12729946  0.58774628  0.42467624    -0.20000
F2784       F  0.08289607  0.61721401  0.40774054    -0.22700
C2785       C  0.94463327  0.66130391  0.51478738    -0.05500
C2786       C  0.97310111  0.64145283  0.51489780     0.00400
C2787       C  0.97337604  0.60901038  0.49712602    -0.08200
C2788       C  0.94407107  0.59584388  0.48563991    -0.05500
C2789       C  0.91486105  0.61397906  0.49018370     0.00400
C2790       C  0.91658585  0.64923844  0.49977422    -0.08100
C2791       C  0.89221235  0.67623718  0.48990513     0.62300
H2792       H  0.94468871  0.68769863  0.52427694     0.13000
H2793       H  0.94316650  0.56960384  0.47594243     0.13000
C2794       C  0.00363849  0.58777667  0.49000544     0.62500
F2795       F  0.90697817  0.70207540  0.47300624    -0.22600
F2796       F  0.87842747  0.69042406  0.51816742    -0.20000
F2797       F  0.86958824  0.66262025  0.46878116    -0.19600
F2798       F  0.02048565  0.58099159  0.51928289    -0.19700
F2799       F  0.02197617  0.60584557  0.46833026    -0.20000
F2800       F  0.99736267  0.55626739  0.47479492    -0.22700
C2801       C  0.03493029  0.79246808  0.59260553    -0.05500
C2802       C  0.04056040  0.78849800  0.62710039     0.00400
C2803       C  0.03154918  0.75723189  0.64209002    -0.08200
C2804       C  0.02456335  0.72872294  0.62126077    -0.05500
C2805       C  0.02244515  0.73196471  0.58652729     0.00400
C2806       C  0.02456294  0.76494332  0.57229868    -0.08100
C2807       C  0.01626418  0.77068303  0.53574908     0.62300
H2808       H  0.04028320  0.81676925  0.58123110     0.13000
H2809       H  0.02131093  0.70363131  0.63216939     0.13000
C2810       C  0.02866448  0.75264615  0.67944540     0.62500
F2811       F  0.98600175  0.75873544  0.52891420    -0.22600
F2812       F  0.03797788  0.75307982  0.51564805    -0.20000
F2813       F  0.01628158  0.80538563  0.52785478    -0.19600
F2814       F  0.99880816  0.74023664  0.68603224    -0.19700
F2815       F  0.03179487  0.78325657  0.69728859    -0.20000
F2816       F  0.05161423  0.72889090  0.69051725    -0.22700
C2817       C  0.74419000  0.34840506  0.63357029    -0.05500
C2818       C  0.71254603  0.35911899  0.62681173     0.00400
C2819       C  0.68938700  0.35699092  0.65238633    -0.08200
C2820       C  0.69895806  0.34353144  0.68315594    -0.05500
C2821       C  0.72941432  0.32888283  0.68872830     0.00400
C2822       C  0.75328002  0.33314744  0.66415959    -0.08100
C2823       C  0.78817059  0.32227032  0.66971971     0.62300
H2824       H  0.76165877  0.35161906  0.61432671     0.13000
H2825       H  0.68144926  0.34280443  0.70261162     0.13000
C2826       C  0.65434974  0.36857165  0.64990322     0.62500
F2827       F  0.80743962  0.33596361  0.64627032    -0.22600
F2828       F  0.79203166  0.28670965  0.66728415    -0.20000
F2829       F  0.79889434  0.33406622  0.70059929    -0.19600
F2830       F  0.65006278  0.39934634  0.66747809    -0.19700
F2831       F  0.63550590  0.34399048  0.66385841    -0.20000
F2832       F  0.64323640  0.37301689  0.61783060    -0.22700
C2833       C  0.62538211  0.25181404  0.78732924    -0.05500
C2834       C  0.63320080  0.22712416  0.81129695     0.00400
C2835       C  0.66438457  0.21288302  0.81339452    -0.08200
C2836       C  0.68829151  0.22969315  0.79730706    -0.05500
C2837       C  0.68163800  0.25750754  0.77557848     0.00400
C2838       C  0.64913632  0.26714402  0.76866836    -0.08100
C2839       C  0.63902169  0.29299824  0.74226764     0.62300
H2840       H  0.60059814  0.25952378  0.78417809     0.13000
H2841       H  0.71250909  0.22006787  0.80179590     0.13000
C2842       C  0.67363249  0.18052062  0.83273221     0.62500
F2843       F  0.60616811  0.29594368  0.73892569    -0.22600
F2844       F  0.65080419  0.28240482  0.71158946    -0.20000
F2845       F  0.65014581  0.32518261  0.75100553    -0.19600
F2846       F  0.69370282  0.18896771  0.85919754    -0.19700
F2847       F  0.68964155  0.15743114  0.81174235    -0.20000
F2848       F  0.64752395  0.16392692  0.84482359    -0.22700
C2849       C  0.77951429  0.21198125  0.70845373    -0.05500
C2850       C  0.78528542  0.23242336  0.73685087     0.00400
C2851       C  0.81097345  0.22519062  0.75858318    -0.08200
C2852       C  0.83145635  0.19734197  0.75049517    -0.05500
C2853       C  0.82634959  0.17702910  0.72151297     0.00400
C2854       C  0.80017793  0.18458857  0.69973587    -0.08100
C2855       C  0.79532453  0.16599191  0.66631272     0.62300
H2856       H  0.75898770  0.21840939  0.69265991     0.13000
H2857       H  0.85305662  0.19306951  0.76522612     0.13000
C2858       C  0.81725860  0.24795231  0.78891561     0.62500
F2859       F  0.77068078  0.18112528  0.64767319    -0.22600
F2860       F  0.78778905  0.13205397  0.67142167    -0.20000
F2861       F  0.82272906  0.16696379  0.64759282    -0.19600
F2862       F  0.82020227  0.28183477  0.77921786    -0.19700
F2863       F  0.84507154  0.23782752  0.80530717    -0.20000
F2864       F  0.79225750  0.24614520  0.81090716    -0.22700
C2865       C  0.43617453  0.19291391  0.58817599    -0.05500
C2866       C  0.42909792  0.15830020  0.58164131     0.00400
C2867       C  0.44890638  0.13743161  0.56107425    -0.08200
C2868       C  0.47507257  0.15245608  0.54690509    -0.05500
C2869       C  0.48390660  0.18635649  0.55486828     0.00400
C2870       C  0.46384302  0.20744086  0.57555257    -0.08100
C2871       C  0.47144850  0.24448481  0.58485778     0.62300
H2872       H  0.42000926  0.20820053  0.60369955     0.13000
H2873       H  0.48954188  0.13713352  0.53003107     0.13000
C2874       C  0.44291822  0.09931172  0.55454119     0.62500
F2875       F  0.44949661  0.25896309  0.60689308    -0.22600
F2876       F  0.47077426  0.26443243  0.55651233    -0.20000
F2877       F  0.50132241  0.24557534  0.60001360    -0.19600
F2878       F  0.46396898  0.08481950  0.53163150    -0.19700
F2879       F  0.41225081  0.09518901  0.54234918    -0.20000
F2880       F  0.44680771  0.08115758  0.58378650    -0.22700
C2881       C  0.61821254  0.15888239  0.50273597    -0.05500
C2882       C  0.58845185  0.14844896  0.51368877     0.00400
C2883       C  0.57645571  0.11689011  0.50094007    -0.08200
C2884       C  0.58827490  0.10406974  0.47059856    -0.05500
C2885       C  0.61384231  0.11961260  0.45552963     0.00400
C2886       C  0.63108728  0.14537190  0.47316480    -0.08100
C2887       C  0.66181186  0.15993589  0.46025994     0.62300
H2888       H  0.62912169  0.18078750  0.51504973     0.13000
H2889       H  0.57735779  0.08207104  0.45840253     0.13000
C2890       C  0.55154007  0.09601006  0.51768963     0.62500
F2891       F  0.67029957  0.18966999  0.47745073    -0.22600
F2892       F  0.65831799  0.16800319  0.42695014    -0.20000
F2893       F  0.68655307  0.13589029  0.46409921    -0.19600
F2894       F  0.52331881  0.09834565  0.49943767    -0.19700
F2895       F  0.54651461  0.10650469  0.55037907    -0.20000
F2896       F  0.56169471  0.06168166  0.51836545    -0.22700
C2897       C  0.55400920  0.29611468  0.54056252    -0.05500
C2898       C  0.56099726  0.27120324  0.51603690     0.00400
C2899       C  0.58057888  0.27947588  0.48887709    -0.08200
C2900       C  0.59631161  0.31095028  0.48990569    -0.05500
C2901       C  0.59226576  0.33416401  0.51666601     0.00400
C2902       C  0.56945286  0.32763751  0.54162246    -0.08100
C2903       C  0.56216940  0.35279496  0.57015758     0.62300
H2904       H  0.53818147  0.28956099  0.56045101     0.13000
H2905       H  0.61356382  0.31654608  0.47099160     0.13000
C2906       C  0.58655816  0.25479270  0.45975944     0.62500
F2907       F  0.54138053  0.33953959  0.59287411    -0.22600
F2908       F  0.54793604  0.38241907  0.55752102    -0.20000
F2909       F  0.58981965  0.36076846  0.58734867    -0.19600
F2910       F  0.55914252  0.23730641  0.45140574    -0.19700
F2911       F  0.61079645  0.23134584  0.46800113    -0.20000
F2912       F  0.59562168  0.27253779  0.43193212    -0.22700
C2913       C  0.78340631  0.06174361  0.46012701    -0.05500
C2914       C  0.77607402  0.02665801  0.46135143     0.00400
C2915       C  0.76724794  0.00901563  0.43164168    -0.08200
C2916       C  0.75928060  0.02862703  0.40338832    -0.05500
C2917       C  0.75862042  0.06491521  0.40540129     0.00400
C2918       C  0.77440077  0.08145128  0.43232768    -0.08100
C2919       C  0.77802044  0.12019266  0.43447107     0.62300
H2920       H  0.79156571  0.07496972  0.48262119     0.13000
H2921       H  0.74818258  0.01598658  0.38200398     0.13000
C2922       C  0.76243949  0.97045253  0.42998097     0.62500
F2923       F  0.80933613  0.12740050  0.44280973    -0.22600
F2924       F  0.75822394  0.13394879  0.45890620    -0.20000
F2925       F  0.77050544  0.13599061  0.40451429    -0.19600
F2926       F  0.73021699  0.96426760  0.42618103    -0.19700
F2927       F  0.77396819  0.95400214  0.45833085    -0.20000
F2928       F  0.77853006  0.95645697  0.40284728    -0.22700
C2929       C  0.67143865  0.98146877  0.52143202    -0.05500
C2930       C  0.69094222  0.00378773  0.54002422     0.00400
C2931       C  0.68015001  0.01636543  0.57150410    -0.08200
C2932       C  0.65784065  0.99732737  0.58817614    -0.05500
C2933       C  0.64340580  0.96948010  0.57211583     0.00400
C2934       C  0.64576309  0.96591494  0.53708146    -0.08100
C2935       C  0.62053767  0.94700000  0.51727915     0.62300
H2936       H  0.67750716  0.97450620  0.49596728     0.13000
H2937       H  0.65417845  0.00211960  0.61460751     0.13000
C2938       C  0.69387078  0.04738474  0.58938951     0.62500
F2939       F  0.59177226  0.96521691  0.52014214    -0.22600
F2940       F  0.61680566  0.91436892  0.52959128    -0.20000
F2941       F  0.62798096  0.94424262  0.48377829    -0.19600
F2942       F  0.70886571  0.06839600  0.56734966    -0.19700
F2943       F  0.71534379  0.03661183  0.61397514    -0.20000
F2944       F  0.66951882  0.06684329  0.60410645    -0.22700
C2945       C  0.81274738  0.99514710  0.59836357    -0.05500
C2946       C  0.79743715  0.02182291  0.58034285     0.00400
C2947       C  0.79961515  0.05666680  0.59135082    -0.08200
C2948       C  0.81849141  0.06364806  0.61937280    -0.05500
C2949       C  0.83662946  0.03755800  0.63514275     0.00400
C2950       C  0.83306489  0.00273701  0.62554889    -0.08100
C2951       C  0.85183401  0.97449725  0.64327443     0.62300
H2952       H  0.80987024  0.96861854  0.59006101     0.13000
H2953       H  0.82183065  0.09038208  0.62687295     0.13000
C2954       C  0.78417112  0.08793096  0.57432203     0.62500
F2955       F  0.84110104  0.94219883  0.63425823    -0.22600
F2956       F  0.84849424  0.97921279  0.67731978    -0.20000
F2957       F  0.88379195  0.97589936  0.63554126    -0.19600
F2958       F  0.76673689  0.08000597  0.54587666    -0.19700
F2959       F  0.80778564  0.11011981  0.56542387    -0.20000
F2960       F  0.76406314  0.10507807  0.59655352    -0.22700
C2961       C  0.44005121  0.99378406  0.70785858    -0.05500
C2962       C  0.42701831  0.99636736  0.73992566     0.00400
C2963       C  0.39493540  0.00703314  0.74379919    -0.08200
C2964       C  0.37847497  0.02083759  0.71621252    -0.05500
C2965       C  0.39325183  0.02297041  0.68502968     0.00400
C2966       C  0.42334908  0.00652953  0.67998769    -0.08100
C2967       C  0.43940249  0.00322808  0.64637611     0.62300
H2968       H  0.46447455  0.98428217  0.70478604     0.13000
H2969       H  0.35473455  0.03215993  0.71968569     0.13000
C2970       C  0.37794044  0.00574686  0.77667476     0.62500
F2971       F  0.44881956  0.96909892  0.64081777    -0.22600
F2972       F  0.46614817  0.02334148  0.64659683    -0.20000
F2973       F  0.41952324  0.01310402  0.62010458    -0.19600
F2974       F  0.39607280  0.98946424  0.80128008    -0.19700
F2975       F  0.35048954  0.98745502  0.77262460    -0.20000
F2976       F  0.36987274  0.03903071  0.78696124    -0.22700
C2977       C  0.47754701  0.12208782  0.83730133    -0.05500
C2978       C  0.50874785  0.12400158  0.84998742     0.00400
C2979       C  0.52826858  0.09336300  0.85219507    -0.08200
C2980       C  0.51513913  0.06203284  0.84237828    -0.05500
C2981       C  0.48506390  0.06007424  0.82648579     0.00400
C2982       C  0.46531810  0.09078892  0.82484011    -0.08100
C2983       C  0.43156286  0.09126919  0.81054200     0.62300
H2984       H  0.46308710  0.14573550  0.83652941     0.13000
H2985       H  0.52993588  0.03882704  0.84542669     0.13000
C2986       C  0.56306284  0.09113510  0.86422914     0.62500
F2987       F  0.41557683  0.12253608  0.81647687    -0.22600
F2988       F  0.41453270  0.06593176  0.82540751    -0.20000
F2989       F  0.43213895  0.08581397  0.77633829    -0.19600
F2990       F  0.56444300  0.07707470  0.89573780    -0.19700
F2991       F  0.57806533  0.12227063  0.86532119    -0.20000
F2992       F  0.58057591  0.06971525  0.84284762    -0.22700
C2993       C  0.55639044  0.97417628  0.77298047    -0.05500
C2994       C  0.52843808  0.95508196  0.77564137     0.00400
C2995       C  0.52536360  0.92421069  0.75676523    -0.08200
C2996       C  0.54627261  0.91783100  0.73063516    -0.05500
C2997       C  0.57305791  0.93818331  0.72628864     0.00400
C2998       C  0.57951619  0.96529160  0.74908499    -0.08100
C2999       C  0.61070863  0.98410830  0.74828148     0.62300
H3000       H  0.55914466  0.99730807  0.78817793     0.13000
H3001       H  0.54289902  0.89525030  0.71469161     0.13000
C3002       C  0.50043092  0.89753813  0.76317768     0.62500
F3003       F  0.61213847  0.00979267  0.77266650    -0.22600
F3004       F  0.61408457  0.99916586  0.71753055    -0.20000
F3005       F  0.63591663  0.96084845  0.75370280    -0.19600
F3006       F  0.48002625  0.89500447  0.73578837    -0.19700
F3007       F  0.48268456  0.90542056  0.79126382    -0.20000
F3008       F  0.51561203  0.86573114  0.76811470    -0.22700
C3009       C  0.48651302  0.57537295  0.19072424    -0.05500
C3010       C  0.50443977  0.54450873  0.18912383     0.00400
C3011       C  0.49979152  0.52075267  0.16244328    -0.08200
C3012       C  0.47326697  0.52579995  0.14129544    -0.05500
C3013       C  0.45315004  0.55499548  0.14501526     0.00400
C3014       C  0.46095911  0.58133468  0.16842567    -0.08100
C3015       C  0.44111074  0.61444439  0.17113626     0.62300
H3016       H  0.49107108  0.59343598  0.21108106     0.13000
H3017       H  0.46805823  0.50684039  0.12192143     0.13000
C3018       C  0.52150169  0.48934710  0.15643589     0.62500
F3019       F  0.45298948  0.63666373  0.19539197    -0.22600
F3020       F  0.41049408  0.60631192  0.17927010    -0.20000
F3021       F  0.44051653  0.63153376  0.14111522    -0.19600
F3022       F  0.52709368  0.48521437  0.12262235    -0.19700
F3023       F  0.50675374  0.46047221  0.16760496    -0.20000
F3024       F  0.55082736  0.49218767  0.17252528    -0.22700
C3025       C  0.55392345  0.43745051  0.28074492    -0.05500
C3026       C  0.52671480  0.45721664  0.27155212     0.00400
C3027       C  0.50349823  0.43955203  0.25270457    -0.08200
C3028       C  0.51467575  0.41700730  0.22773794    -0.05500
C3029       C  0.54653547  0.40472053  0.22936795     0.00400
C3030       C  0.56341611  0.40932422  0.26015927    -0.08100
C3031       C  0.59125394  0.38636882  0.27127051     0.62300
H3032       H  0.56992143  0.44660865  0.30027593     0.13000
H3033       H  0.49910249  0.41146535  0.20683679     0.13000
C3034       C  0.46854465  0.44874686  0.25520016     0.62500
F3035       F  0.58352976  0.37169026  0.30118782    -0.22600
F3036       F  0.61823596  0.40569391  0.27591511    -0.20000
F3037       F  0.59791154  0.35986058  0.24867330    -0.19600
F3038       F  0.45786084  0.46598534  0.22695875    -0.19700
F3039       F  0.46335197  0.46924452  0.28327344    -0.20000
F3040       F  0.45156439  0.41889151  0.25826855    -0.22700
C3041       C  0.44329908  0.68148429  0.97527802    -0.05500
C3042       C  0.43577468  0.70802113  0.99852150     0.00400
C3043       C  0.41134994  0.70322128  0.02201187    -0.08200
C3044       C  0.39993035  0.66995665  0.02525761    -0.05500
C3045       C  0.41112470  0.64222472  0.00519197     0.00400
C3046       C  0.43255338  0.64797845  0.97947158    -0.08100
C3047       C  0.44565337  0.61822942  0.95853163     0.62300
H3048       H  0.46130074  0.68596962  0.95682767     0.13000
H3049       H  0.38404591  0.66468982  0.04550412     0.13000
C3050       C  0.39971480  0.73131463  0.04627689     0.62500
F3051       F  0.46582395  0.62927920  0.93430031    -0.22600
F3052       F  0.42057439  0.60168059  0.94345804    -0.20000
F3053       F  0.46259228  0.59488270  0.97818887    -0.19600
F3054       F  0.39229752  0.76138091  0.02925956    -0.19700
F3055       F  0.42303167  0.73741874  0.07029957    -0.20000
F3056       F  0.37242340  0.72198648  0.06255333    -0.22700
C3057       C  0.46583440  0.80914649  0.08734544    -0.05500
C3058       C  0.47227926  0.81287917  0.05338608     0.00400
C3059       C  0.47612092  0.84601800  0.04038370    -0.08200
C3060       C  0.48054398  0.87355649  0.06298863    -0.05500
C3061       C  0.48347093  0.86720925  0.09736277     0.00400
C3062       C  0.47089605  0.83656566  0.10985035    -0.08100
C3063       C  0.46729453  0.83037011  0.14678188     0.62300
H3064       H  0.46070100  0.78389353  0.09685356     0.13000
H3065       H  0.48754136  0.89820694  0.05371517     0.13000
C3066       C  0.47828514  0.85125904  0.00314645     0.62500
F3067       F  0.43626733  0.82120571  0.15276621    -0.22600
F3068       F  0.47372365  0.85949940  0.16583955    -0.20000
F3069       F  0.48792765  0.80376791  0.15669302    -0.19600
F3070       F  0.45213644  0.83702925  0.98720948    -0.19700
F3071       F  0.50583617  0.83515908  0.99128160    -0.20000
F3072       F  0.47870915  0.88594901  0.99542939    -0.22700
C3073       C  0.57398842  0.73819869  0.00549839    -0.05500
C3074       C  0.54831341  0.71980948  0.01734261     0.00400
C3075       C  0.55154055  0.68323483  0.01904863    -0.08200
C3076       C  0.57588728  0.66616536  0.00105157    -0.05500
C3077       C  0.59776580  0.68463709  0.98291297     0.00400
C3078       C  0.59937811  0.72089091  0.98885130    -0.08100
C3079       C  0.62513315  0.74262868  0.97475622     0.62300
H3080       H  0.57255195  0.76621494  0.00572656     0.13000
H3081       H  0.57550602  0.63827054  0.99818213     0.13000
C3082       C  0.52818874  0.66083611  0.03654338     0.62500
F3083       F  0.63903251  0.76168391  0.00030763    -0.22600
F3084       F  0.61149406  0.76508975  0.95182496    -0.20000
F3085       F  0.64887999  0.72282879  0.95942507    -0.19600
F3086       F  0.51148554  0.64224001  0.01265902    -0.19700
F3087       F  0.50689451  0.67973146  0.05618754    -0.20000
F3088       F  0.54484539  0.63801045  0.05711453    -0.22700
C3089       C  0.67211177  0.47429346  0.12698941    -0.05500
C3090       C  0.68358535  0.44119394  0.13575397     0.00400
C3091       C  0.71697669  0.43364675  0.13475015    -0.08200
C3092       C  0.73646064  0.45630252  0.11785115    -0.05500
C3093       C  0.72366522  0.48675834  0.10401315     0.00400
C3094       C  0.69204526  0.49766933  0.11165270    -0.08100
C3095       C  0.67879442  0.53269539  0.10074010     0.62300
H3096       H  0.64679154  0.48038013  0.12896301     0.13000
H3097       H  0.76100166  0.44851333  0.11268948     0.13000
C3098       C  0.73265317  0.40127177  0.14922726     0.62500
F3099       F  0.64910287  0.54008639  0.11424480    -0.22600
F3100       F  0.67573768  0.53363801  0.06635483    -0.20000
F3101       F  0.69932922  0.55809532  0.11137069    -0.19600
F3102       F  0.74535279  0.38082653  0.12379332    -0.19700
F3103       F  0.71164650  0.38204607  0.16700636    -0.20000
F3104       F  0.75709964  0.41066819  0.17082274    -0.22700
C3105       C  0.81342471  0.56639718  0.06013243    -0.05500
C3106       C  0.78820679  0.56486095  0.03685218     0.00400
C3107       C  0.78529073  0.59077840  0.01202304    -0.08200
C3108       C  0.81057716  0.61347166  0.00824496    -0.05500
C3109       C  0.83599235  0.61468061  0.03134689     0.00400
C3110       C  0.83581725  0.59257287  0.05951268    -0.08100
C3111       C  0.85702052  0.59599694  0.09047080     0.62300
H3112       H  0.81488119  0.54781615  0.08012394     0.13000
H3113       H  0.81000297  0.63156266  0.98784921     0.13000
C3114       C  0.75465860  0.59720594  0.99190666     0.62500
F3115       F  0.83830390  0.59554344  0.11859255    -0.22600
F3116       F  0.87332356  0.62636752  0.09175517    -0.20000
F3117       F  0.87865473  0.56832756  0.09182332    -0.19600
F3118       F  0.72864388  0.59618244  0.01267166    -0.19700
F3119       F  0.75173290  0.57271804  0.96678007    -0.20000
F3120       F  0.75404339  0.62943486  0.97730317    -0.22700
C3121       C  0.69664936  0.51327329  0.93139705    -0.05500
C3122       C  0.66565262  0.52286787  0.94177910     0.00400
C3123       C  0.65386741  0.50944438  0.97163635    -0.08200
C3124       C  0.67570121  0.49306383  0.99340042    -0.05500
C3125       C  0.70840351  0.49074482  0.98595331     0.00400
C3126       C  0.71808099  0.49616454  0.95299573    -0.08100
C3127       C  0.75117266  0.48610266  0.94082138     0.62300
H3128       H  0.70509113  0.52175281  0.90751141     0.13000
H3129       H  0.66776711  0.48665281  0.01810794     0.13000
C3130       C  0.61974435  0.51514452  0.98315030     0.62500
F3131       F  0.74854123  0.46653700  0.91175442    -0.22600
F3132       F  0.76825738  0.46661225  0.96405931    -0.20000
F3133       F  0.76792325  0.51534277  0.93414413    -0.19600
F3134       F  0.59970188  0.52804399  0.95826115    -0.19700
F3135       F  0.61925115  0.53801830  0.01004576    -0.20000
F3136       F  0.60786200  0.48406708  0.99312635    -0.22700
C3137       C  0.64740854  0.54567183  0.28904662    -0.05500
C3138       C  0.64102995  0.57144737  0.31275011     0.00400
C3139       C  0.61570175  0.59621854  0.30690150    -0.08200
C3140       C  0.59214916  0.58755693  0.28331526    -0.05500
C3141       C  0.59552234  0.55708461  0.26456933     0.00400
C3142       C  0.62529105  0.53931651  0.26367963    -0.08100
C3143       C  0.63371912  0.51213995  0.23802292     0.62300
H3144       H  0.66786035  0.52818284  0.29213540     0.13000
H3145       H  0.56976240  0.60230652  0.28204743     0.13000
C3146       C  0.61224321  0.63012574  0.32645167     0.62500
F3147       F  0.66193070  0.52044588  0.22299723    -0.22600
F3148       F  0.61037559  0.50966257  0.21335443    -0.20000
F3149       F  0.63806124  0.48093954  0.25388331    -0.19600
F3150       F  0.64057036  0.64740278  0.32584442    -0.19700
F3151       F  0.60430671  0.62462943  0.35915854    -0.20000
F3152       F  0.58862390  0.65152170  0.31259698    -0.22700
C3153       C  0.71230954  0.66671719  0.30408246    -0.05500
C3154       C  0.72685123  0.67812408  0.33391205     0.00400
C3155       C  0.74553988  0.70821783  0.33358937    -0.08200
C3156       C  0.74834016  0.72538671  0.30314506    -0.05500
C3157       C  0.73560001  0.71157079  0.27339046     0.00400
C3158       C  0.71888228  0.68057456  0.27360175    -0.08100
C3159       C  0.70833623  0.65949639  0.24320263     0.62300
H3160       H  0.69625514  0.64535179  0.30400865     0.13000
H3161       H  0.76118404  0.74927875  0.30241874     0.13000
C3162       C  0.76223799  0.72383494  0.36391794     0.62500
F3163       F  0.72302710  0.62704964  0.24462510    -0.22600
F3164       F  0.71598944  0.67354142  0.21308459    -0.20000
F3165       F  0.67565284  0.65554623  0.24402738    -0.19600
F3166       F  0.79363700  0.72970853  0.35645407    -0.19700
F3167       F  0.76238647  0.70287045  0.39139813    -0.20000
F3168       F  0.74737741  0.75512060  0.37218492    -0.22700
C3169       C  0.81352945  0.76819323  0.16969824    -0.05500
C3170       C  0.79664393  0.73850619  0.17651040     0.00400
C3171       C  0.80486365  0.70645033  0.16124020    -0.08200
C3172       C  0.82920633  0.70548023  0.13798039    -0.05500
C3173       C  0.84485202  0.73555771  0.12951368     0.00400
C3174       C  0.83818026  0.76702616  0.14640400    -0.08100
C3175       C  0.85672981  0.79892555  0.13923501     0.62300
H3176       H  0.80660997  0.79233529  0.18200030     0.13000
H3177       H  0.83586570  0.68133842  0.12551901     0.13000
C3178       C  0.78719675  0.67380147  0.16855359     0.62500
F3179       F  0.84582280  0.82700688  0.15788960    -0.22600
F3180       F  0.85364353  0.80693385  0.10583828    -0.20000
F3181       F  0.88866698  0.79286682  0.14693256    -0.19600
F3182       F  0.75511845  0.67859774  0.16079157    -0.19700
F3183       F  0.79082820  0.66602767  0.20200354    -0.20000
F3184       F  0.79854961  0.64574157  0.14998693    -0.22700
C3185       C  0.68655515  0.78296076  0.14824278    -0.05500
C3186       C  0.68235253  0.76406870  0.17737886     0.00400
C3187       C  0.65086441  0.76120433  0.18997722    -0.08200
C3188       C  0.62685161  0.78371932  0.17768556    -0.05500
C3189       C  0.63345812  0.80738842  0.15308559     0.00400
C3190       C  0.66232226  0.80452864  0.13561313    -0.08100
C3191       C  0.66988924  0.82613443  0.10586770     0.62300
H3192       H  0.70967977  0.78330278  0.13651067     0.13000
H3193       H  0.60371683  0.78536076  0.18939639     0.13000
C3194       C  0.64180385  0.73451386  0.21516644     0.62500
F3195       F  0.68084715  0.80480449  0.08020564    -0.22600
F3196       F  0.69361330  0.84863324  0.11510805    -0.20000
F3197       F  0.64355564  0.84470910  0.09393101    -0.19600
F3198       F  0.65365669  0.74262034  0.24663222    -0.19700
F3199       F  0.65353007  0.70254977  0.20471197    -0.20000
F3200       F  0.60896519  0.73235927  0.21759983    -0.22700
C3201       C  0.34564220  0.52093327  0.86092225    -0.05500
C3202       C  0.36995110  0.52983616  0.88352919     0.00400
C3203       C  0.38171798  0.50523439  0.90692981    -0.08200
C3204       C  0.36518325  0.47456868  0.91016985    -0.05500
C3205       C  0.33659123  0.46931229  0.89233788     0.00400
C3206       C  0.32974103  0.48986258  0.86389495    -0.08100
C3207       C  0.30567489  0.48060541  0.83676489     0.62300
H3208       H  0.33862677  0.53869318  0.84126505     0.13000
H3209       H  0.37194290  0.45703523  0.93002545     0.13000
C3210       C  0.40956461  0.51237431  0.93050565     0.62500
F3211       F  0.31968793  0.48319868  0.80589014    -0.22600
F3212       F  0.27962831  0.50337482  0.83811508    -0.20000
F3213       F  0.29547059  0.44712274  0.83947342    -0.19600
F3214       F  0.41716049  0.48441828  0.95059546    -0.19700
F3215       F  0.40168710  0.54011629  0.95106668    -0.20000
F3216       F  0.43642675  0.51953119  0.91263074    -0.22700
C3217       C  0.17016530  0.44980332  0.89235851    -0.05500
C3218       C  0.16828132  0.47808803  0.87079538     0.00400
C3219       C  0.19328893  0.50148337  0.86968216    -0.08200
C3220       C  0.22027845  0.49501089  0.88996758    -0.05500
C3221       C  0.22323880  0.46526318  0.90971419     0.00400
C3222       C  0.19749906  0.44270694  0.91186645    -0.08100
C3223       C  0.19936543  0.41047813  0.93305061     0.62300
H3224       H  0.15031189  0.43249795  0.89268510     0.13000
H3225       H  0.24011028  0.51230579  0.88934912     0.13000
C3226       C  0.19157486  0.53267013  0.84708412     0.62500
F3227       F  0.17202289  0.39136969  0.92979164    -0.22600
F3228       F  0.20295426  0.41975806  0.96635115    -0.20000
F3229       F  0.22504196  0.38953139  0.92343997    -0.19600
F3230       F  0.16522930  0.55331225  0.85503760    -0.19700
F3231       F  0.18909715  0.52264038  0.81398293    -0.20000
F3232       F  0.21864430  0.55200967  0.85028735    -0.22700
C3233       C  0.29291319  0.46245576  0.02101650    -0.05500
C3234       C  0.29957651  0.43423749  0.99965416     0.00400
C3235       C  0.31704474  0.40516285  0.01166578    -0.08200
C3236       C  0.33062381  0.40690619  0.04391182    -0.05500
C3237       C  0.32559272  0.43607006  0.06464292     0.00400
C3238       C  0.30512120  0.46342665  0.05383066    -0.08100
C3239       C  0.29735291  0.49388093  0.07654527     0.62300
H3240       H  0.27912446  0.48433241  0.01136078     0.13000
H3241       H  0.34492692  0.38532280  0.05341558     0.13000
C3242       C  0.31976352  0.37208187  0.99103991     0.62500
F3243       F  0.27565813  0.51698626  0.06202884    -0.22600
F3244       F  0.32520736  0.51070743  0.08389701    -0.20000
F3245       F  0.28418724  0.48261041  0.10564441    -0.19600
F3246       F  0.33877200  0.37684737  0.96370881    -0.19700
F3247       F  0.28966719  0.36276196  0.98011930    -0.20000
F3248       F  0.33274900  0.34506850  0.00952645    -0.22700
C3249       C  0.52838053  0.41510296  0.73879240    -0.05500
C3250       C  0.51514998  0.43318640  0.76605527     0.00400
C3251       C  0.51738699  0.41910713  0.79819307    -0.08200
C3252       C  0.53935896  0.39202038  0.80348514    -0.05500
C3253       C  0.55816745  0.37850647  0.77735311     0.00400
C3254       C  0.55004417  0.38720190  0.74400563    -0.08100
C3255       C  0.56537519  0.36855695  0.71462120     0.62300
H3256       H  0.52494462  0.42560035  0.71403164     0.13000
H3257       H  0.54479440  0.38465923  0.82894171     0.13000
C3258       C  0.50048625  0.43506325  0.82810772     0.62500
F3259       F  0.55444629  0.38179146  0.68446087    -0.22600
F3260       F  0.55781385  0.33409381  0.71530698    -0.20000
F3261       F  0.59815495  0.37141205  0.71615352    -0.19600
F3262       F  0.47537693  0.45702220  0.81865075    -0.19700
F3263       F  0.52203045  0.45332271  0.84742788    -0.20000
F3264       F  0.48823763  0.40925513  0.84720977    -0.22700
C3265       C  0.54284892  0.53997373  0.83158054    -0.05500
C3266       C  0.54278807  0.55006943  0.79806336     0.00400
C3267       C  0.54259660  0.58571365  0.79168215    -0.08200
C3268       C  0.52775444  0.60796739  0.81499465    -0.05500
C3269       C  0.51650164  0.59443108  0.84475186     0.00400
C3270       C  0.52890416  0.56214345  0.85553262    -0.08100
C3271       C  0.52522439  0.54948589  0.89071192     0.62300
H3272       H  0.54767096  0.51320815  0.83789191     0.13000
H3273       H  0.52167700  0.63439158  0.80842612     0.13000
C3274       C  0.55746319  0.59915916  0.76054173     0.62500
F3275       F  0.55513533  0.54116792  0.90388547    -0.22600
F3276       F  0.50691279  0.52034487  0.89030561    -0.20000
F3277       F  0.51102704  0.57430946  0.91130611    -0.19600
F3278       F  0.53954875  0.59057342  0.73262461    -0.19700
F3279       F  0.58788088  0.58466682  0.75742267    -0.20000
F3280       F  0.55993089  0.63471152  0.76212477    -0.22700
C3281       C  0.43715016  0.51519051  0.66179026    -0.05500
C3282       C  0.40777970  0.50476622  0.67426409     0.00400
C3283       C  0.39962610  0.51396483  0.70759402    -0.08200
C3284       C  0.42391061  0.52600171  0.72897886    -0.05500
C3285       C  0.45518338  0.52898575  0.71756039     0.00400
C3286       C  0.46110306  0.52735132  0.68307895    -0.08100
C3287       C  0.49452684  0.53082781  0.66982079     0.62300
H3288       H  0.44350568  0.50864468  0.63636879     0.13000
H3289       H  0.41949463  0.52836974  0.75554288     0.13000
C3290       C  0.36710772  0.50813519  0.72253995     0.62500
F3291       F  0.49438131  0.53357792  0.63540240    -0.22600
F3292       F  0.51311858  0.50214574  0.67851129    -0.20000
F3293       F  0.50802104  0.56008281  0.68330047    -0.19600
F3294       F  0.36995448  0.48301017  0.74664686    -0.19700
F3295       F  0.34459241  0.49820158  0.69894072    -0.20000
F3296       F  0.35583916  0.53829428  0.73761694    -0.22700
C3297       C  0.51752346  0.29288622  0.92917859    -0.05500
C3298       C  0.52770665  0.27151883  0.95551392     0.00400
C3299       C  0.56034718  0.26621900  0.96282266    -0.08200
C3300       C  0.58218869  0.28081171  0.94146609    -0.05500
C3301       C  0.57177629  0.30403619  0.91651748     0.00400
C3302       C  0.53897552  0.31231102  0.91218040    -0.08100
C3303       C  0.52581252  0.34380508  0.89348720     0.62300
H3304       H  0.49225586  0.29888576  0.92561789     0.13000
H3305       H  0.60749954  0.27648293  0.94578345     0.13000
C3306       C  0.57146991  0.24714976  0.99387212     0.62500
F3307       F  0.50059362  0.35913905  0.91073565    -0.22600
F3308       F  0.51470696  0.33388849  0.86221670    -0.20000
F3309       F  0.54843241  0.36880256  0.89034823    -0.19600
F3310       F  0.55893825  0.21453151  0.99360612    -0.19700
F3311       F  0.56104422  0.26494665  0.02205431    -0.20000
F3312       F  0.60443415  0.24392124  0.99592464    -0.22700
C3313       C  0.49430183  0.34937810  0.05031108    -0.05500
C3314       C  0.46943944  0.34063121  0.02808267     0.00400
C3315       C  0.44185601  0.36221119  0.02663777    -0.08200
C3316       C  0.43452880  0.38172433  0.05495396    -0.05500
C3317       C  0.45673090  0.38471353  0.08162753     0.00400
C3318       C  0.48861681  0.37304814  0.07652588    -0.08100
C3319       C  0.51671983  0.38519468  0.09710764     0.62300
H3320       H  0.51748786  0.33633060  0.04857948     0.13000
H3321       H  0.41054537  0.39272681  0.05681770     0.13000
C3322       C  0.41975523  0.36454702  0.99639980     0.62500
F3323       F  0.53530792  0.35716868  0.10732819    -0.22600
F3324       F  0.50733873  0.40452112  0.12470479    -0.20000
F3325       F  0.53516263  0.40551751  0.07743422    -0.19600
F3326       F  0.39496695  0.34235465  0.99976665    -0.19700
F3327       F  0.43599721  0.35644890  0.96734192    -0.20000
F3328       F  0.40718445  0.39786890  0.99343644    -0.22700
C3329       C  0.42742409  0.25458398  0.91953977    -0.05500
C3330       C  0.42072005  0.25615495  0.95382490     0.00400
C3331       C  0.39057001  0.24643790  0.96512178    -0.08200
C3332       C  0.36905851  0.23274357  0.94162043    -0.05500
C3333       C  0.37910338  0.22433404  0.90915267     0.00400
C3334       C  0.40758627  0.23744380  0.89701777    -0.08100
C3335       C  0.41941766  0.23138769  0.86172484     0.62300
H3336       H  0.44996709  0.26358756  0.91070332     0.13000
H3337       H  0.34683170  0.22236056  0.94989223     0.13000
C3338       C  0.38307169  0.24535982  0.00190204     0.62500
F3339       F  0.44861077  0.21368423  0.86281961    -0.22600
F3340       F  0.42335575  0.26294937  0.84687493    -0.20000
F3341       F  0.39861457  0.21264877  0.84193783    -0.19600
F3342       F  0.35258789  0.23397146  0.00727243    -0.19700
F3343       F  0.38511728  0.27793113  0.01603907    -0.20000
F3344       F  0.40467109  0.22294743  0.01752779    -0.22700
C3345       C  0.23705414  0.16745389  0.80188151    -0.05500
C3346       C  0.23578787  0.17788216  0.83559226     0.00400
C3347       C  0.21907770  0.20884334  0.84434898    -0.08200
C3348       C  0.21039620  0.23190385  0.81885399    -0.05500
C3349       C  0.21734278  0.22401444  0.78534804     0.00400
C3350       C  0.22818451  0.19028530  0.77635683    -0.08100
C3351       C  0.23188040  0.17753145  0.74062111     0.62300
H3352       H  0.24868922  0.14293358  0.79526570     0.13000
H3353       H  0.20099696  0.25746434  0.82549193     0.13000
C3354       C  0.21391816  0.22006417  0.88026462     0.62500
F3355       F  0.21372370  0.14856817  0.73581127    -0.22600
F3356       F  0.26358659  0.16862599  0.73492675    -0.20000
F3357       F  0.22182067  0.20173711  0.71742320    -0.19600
F3358       F  0.23502583  0.24562173  0.88892475    -0.19700
F3359       F  0.21834835  0.19278360  0.90193624    -0.20000
F3360       F  0.18300664  0.23307890  0.88384967    -0.22700
C3361       C  0.28408580  0.34548584  0.73981435    -0.05500
C3362       C  0.28199018  0.31032409  0.73115892     0.00400
C3363       C  0.30607034  0.29428952  0.71149061    -0.08200
C3364       C  0.32891510  0.31533050  0.69724652    -0.05500
C3365       C  0.32701105  0.35156673  0.70080965     0.00400
C3366       C  0.30609531  0.36675363  0.72480993    -0.08100
C3367       C  0.30555676  0.40519452  0.73356825     0.62300
H3368       H  0.26637635  0.35676597  0.75647971     0.13000
H3369       H  0.34564401  0.30423694  0.67942355     0.13000
C3370       C  0.30585839  0.25602875  0.70292197     0.62500
F3371       F  0.28094974  0.41435322  0.75495868    -0.22600
F3372       F  0.30153077  0.42476505  0.70516712    -0.20000
F3373       F  0.33384148  0.41344471  0.74957287    -0.19600
F3374       F  0.27810812  0.24850036  0.68543804    -0.19700
F3375       F  0.30750567  0.23714979  0.73193768    -0.20000
F3376       F  0.33159667  0.24585216  0.68344218    -0.22700
C3377       C  0.15063660  0.33237571  0.76677285    -0.05500
C3378       C  0.16795254  0.32806221  0.73739342     0.00400
C3379       C  0.16274825  0.35179339  0.71099038    -0.08200
C3380       C  0.13989316  0.37884931  0.71513418    -0.05500
C3381       C  0.12543782  0.38522918  0.74592372     0.00400
C3382       C  0.13123790  0.36171376  0.77266887    -0.08100
C3383       C  0.12119049  0.36703289  0.80893351     0.62300
H3384       H  0.15535109  0.31477201  0.78721185     0.13000
H3385       H  0.13563361  0.39752229  0.69557052     0.13000
C3386       C  0.18232273  0.35027647  0.67943253     0.62500
F3387       F  0.10521651  0.33842994  0.81923344    -0.22600
F3388       F  0.10176084  0.39566399  0.81481367    -0.20000
F3389       F  0.14835002  0.37032530  0.82873076    -0.19600
F3390       F  0.18257798  0.31721510  0.66582793    -0.19700
F3391       F  0.21326284  0.35994387  0.68636066    -0.20000
F3392       F  0.16995364  0.37281845  0.65588524    -0.22700
C3393       C  0.38042225  0.77798233  0.54134976    -0.05500
C3394       C  0.38988586  0.76528890  0.57281385     0.00400
C3395       C  0.41294433  0.73775679  0.57464146    -0.08200
C3396       C  0.43023282  0.72892083  0.54602866    -0.05500
C3397       C  0.42355131  0.74520097  0.51568362     0.00400
C3398       C  0.39673313  0.76784414  0.51240582    -0.08100
C3399       C  0.38726898  0.78339718  0.47900294     0.62300
H3400       H  0.36221242  0.79838536  0.53995085     0.13000
H3401       H  0.45057888  0.71099602  0.54795517     0.13000
C3402       C  0.42153851  0.71882858  0.60639757     0.62500
F3403       F  0.35961977  0.80378442  0.48111095    -0.22600
F3404       F  0.38186260  0.75714342  0.45595942    -0.20000
F3405       F  0.41142505  0.80365453  0.46780672    -0.19600
F3406       F  0.39983872  0.72624853  0.63109976    -0.19700
F3407       F  0.45154984  0.72797537  0.61751148    -0.20000
F3408       F  0.42179650  0.68355546  0.60030447    -0.22700
C3409       C  0.22183650  0.90830886  0.56530107    -0.05500
C3410       C  0.23725812  0.91085621  0.53468205     0.00400
C3411       C  0.26136022  0.88615200  0.52628157    -0.08200
C3412       C  0.27605684  0.86727400  0.55201426    -0.05500
C3413       C  0.26446017  0.86939027  0.58475510     0.00400
C3414       C  0.23428059  0.88612222  0.59016040    -0.08100
C3415       C  0.21577710  0.88302555  0.62210363     0.62300
H3416       H  0.20202106  0.92594050  0.57106222     0.13000
H3417       H  0.29827026  0.85321171  0.54695299     0.13000
C3418       C  0.27543371  0.88384077  0.49172603     0.62500
F3419       F  0.21295409  0.91488839  0.63805151    -0.22600
F3420       F  0.23017021  0.85972519  0.64382381    -0.20000
F3421       F  0.18549764  0.87170404  0.61431470    -0.19600
F3422       F  0.30228046  0.90370480  0.49056225    -0.19700
F3423       F  0.25338199  0.89513975  0.46792277    -0.20000
F3424       F  0.28395169  0.84987560  0.48394567    -0.22700
C3425       C  0.33589210  0.05392116  0.51834635    -0.05500
C3426       C  0.34726561  0.05184338  0.48579799     0.00400
C3427       C  0.34018458  0.02311220  0.46490759    -0.08200
C3428       C  0.31829490  0.99971275  0.47616287    -0.05500
C3429       C  0.30288703  0.00531664  0.50642576     0.00400
C3430       C  0.31387087  0.03019591  0.52917453    -0.08100
C3431       C  0.30205807  0.03186222  0.56422173     0.62300
H3432       H  0.34256180  0.07556313  0.53422781     0.13000
H3433       H  0.31089705  0.97854987  0.46021797     0.13000
C3434       C  0.35447539  0.01771004  0.43061194     0.62500
F3435       F  0.32205953  0.05178365  0.58347837    -0.22600
F3436       F  0.30243714  0.99900056  0.57731752    -0.20000
F3437       F  0.27134640  0.04596430  0.56495387    -0.19600
F3438       F  0.38679263  0.01070361  0.43433822    -0.19700
F3439       F  0.34945102  0.04681505  0.41143837    -0.20000
F3440       F  0.34126474  0.99009212  0.41349488    -0.22700
C3441       C  0.19600467  0.97485270  0.39091302    -0.05500
C3442       C  0.16303593  0.97774035  0.39657410     0.00400
C3443       C  0.15309146  0.00152849  0.42194476    -0.08200
C3444       C  0.17377193  0.00632326  0.44934932    -0.05500
C3445       C  0.20503333  0.99288624  0.44799567     0.00400
C3446       C  0.21765031  0.98242684  0.41671412    -0.08100
C3447       C  0.25321098  0.97751695  0.41107098     0.62300
H3448       H  0.20497986  0.96246073  0.36862749     0.13000
H3449       H  0.16505580  0.01858684  0.47209149     0.13000
C3450       C  0.12030047  0.01872858  0.42231468     0.62500
F3451       F  0.26821991  0.00800771  0.41884404    -0.22600
F3452       F  0.25985422  0.96907378  0.37811906    -0.20000
F3453       F  0.26554701  0.95131482  0.43084292    -0.19600
F3454       F  0.10336929  0.00812750  0.44943812    -0.19700
F3455       F  0.10326703  0.01130267  0.39335042    -0.20000
F3456       F  0.12365277  0.05403463  0.42491957    -0.22700
C3457       C  0.55939329  0.83534434  0.47083178    -0.05500
C3458       C  0.58584842  0.81228353  0.46978683     0.00400
C3459       C  0.58405555  0.77908404  0.48367161    -0.08200
C3460       C  0.55421761  0.76803008  0.49313964    -0.05500
C3461       C  0.52692360  0.78913545  0.48871114     0.00400
C3462       C  0.52952299  0.82412737  0.48048158    -0.08100
C3463       C  0.50052101  0.84854029  0.48028910     0.62300
H3464       H  0.56168886  0.86119577  0.46132888     0.13000
H3465       H  0.55167923  0.74133395  0.50028538     0.13000
C3466       C  0.61201604  0.75378866  0.48736390     0.62500
F3467       F  0.50869029  0.88211909  0.47367774    -0.22600
F3468       F  0.48645752  0.84836559  0.51129502    -0.20000
F3469       F  0.47854794  0.83816962  0.45629926    -0.19600
F3470       F  0.64034235  0.76744220  0.47768828    -0.19700
F3471       F  0.60642603  0.72443518  0.46826717    -0.20000
F3472       F  0.61518921  0.74457217  0.52050201    -0.22700
C3473       C  0.54355414  0.87013229  0.28327038    -0.05500
C3474       C  0.52346214  0.87992697  0.30972715     0.00400
C3475       C  0.52784695  0.86434448  0.34103401    -0.08200
C3476       C  0.55695851  0.84747722  0.34742336    -0.05500
C3477       C  0.58050627  0.84360005  0.32263567     0.00400
C3478       C  0.57206029  0.85128175  0.28920552    -0.08100
C3479       C  0.59363336  0.84385518  0.25991445     0.62300
H3480       H  0.53896311  0.88036990  0.25855355     0.13000
H3481       H  0.56215705  0.84058735  0.37304118     0.13000
C3482       C  0.50428307  0.86863254  0.36929162     0.62500
F3483       F  0.57660714  0.82712214  0.23494220    -0.22600
F3484       F  0.61992245  0.82314773  0.26835642    -0.20000
F3485       F  0.60388668  0.87474812  0.24775696    -0.19600
F3486       F  0.47357398  0.87501827  0.35717983    -0.19700
F3487       F  0.51318097  0.89557980  0.39019795    -0.20000
F3488       F  0.50398625  0.83870850  0.38773317    -0.22700
C3489       C  0.42664092  0.96463196  0.24050634    -0.05500
C3490       C  0.45952294  0.95706021  0.23985805     0.00400
C3491       C  0.47418310  0.94716013  0.20971348    -0.08200
C3492       C  0.45457301  0.93715493  0.18306645    -0.05500
C3493       C  0.42132745  0.94086639  0.18462283     0.00400
C3494       C  0.40718422  0.95769699  0.21255006    -0.08100
C3495       C  0.37196023  0.96757749  0.21310436     0.62300
H3496       H  0.41596771  0.97338702  0.26370322     0.13000
H3497       H  0.46515227  0.92497562  0.16148696     0.13000
C3498       C  0.51004130  0.94710284  0.20475311     0.62500
F3499       F  0.36419347  0.98709904  0.24124767    -0.22600
F3500       F  0.35415770  0.93829271  0.21307030    -0.20000
F3501       F  0.36388069  0.98684641  0.18527982    -0.19600
F3502       F  0.52102703  0.91424787  0.19598110    -0.19700
F3503       F  0.52677853  0.95813467  0.23280875    -0.20000
F3504       F  0.51647776  0.96949257  0.17940376    -0.22700
C3505       C  0.50286742  0.00824704  0.36915025    -0.05500
C3506       C  0.47849834  0.98773442  0.35584963     0.00400
C3507       C  0.44626855  0.99470175  0.36401194    -0.08200
C3508       C  0.43898435  0.02479415  0.38197134    -0.05500
C3509       C  0.46286767  0.04712393  0.39273668     0.00400
C3510       C  0.49531884  0.03848292  0.38761058    -0.08100
C3511       C  0.52109142  0.06279355  0.39898123     0.62300
H3512       H  0.52736853  0.00237407  0.36226131     0.13000
H3513       H  0.41414382  0.03239977  0.38546900     0.13000
C3514       C  0.41856167  0.97307097  0.35172659     0.62500
F3515       F  0.55134333  0.04802972  0.39520526    -0.22600
F3516       F  0.51721307  0.07146109  0.43232434    -0.20000
F3517       F  0.51876076  0.09249936  0.38031505    -0.19600
F3518       F  0.40145950  0.99102545  0.32742008    -0.19700
F3519       F  0.39856201  0.96701859  0.37796659    -0.20000
F3520       F  0.42825123  0.94122126  0.33872190    -0.22700
C3521       C  0.44173145  0.70739195  0.39492570    -0.05500
C3522       C  0.47095757  0.72085779  0.40527203     0.00400
C3523       C  0.49785370  0.71666729  0.38379346    -0.08200
C3524       C  0.49469425  0.69616567  0.35469912    -0.05500
C3525       C  0.46637186  0.67960036  0.34684967     0.00400
C3526       C  0.43879536  0.68674233  0.36620034    -0.08100
C3527       C  0.40611536  0.67311582  0.35701934     0.62300
H3528       H  0.42097761  0.71256170  0.41012796     0.13000
H3529       H  0.51501627  0.69076271  0.33887179     0.13000
C3530       C  0.53020964  0.73203260  0.39136131     0.62500
F3531       F  0.38379631  0.68169022  0.38111800    -0.22600
F3532       F  0.40713121  0.63759843  0.35364046    -0.20000
F3533       F  0.39565445  0.68764424  0.32744871    -0.19600
F3534       F  0.54265765  0.71901339  0.42094967    -0.19700
F3535       F  0.52705298  0.76765318  0.39349128    -0.20000
F3536       F  0.55208896  0.72416519  0.36661818    -0.22700
C3537       C  0.23478636  0.83278174  0.35517628    -0.05500
C3538       C  0.20778610  0.81441010  0.36431097     0.00400
C3539       C  0.21315191  0.77928835  0.37349049    -0.08200
C3540       C  0.23881215  0.76105820  0.35878717    -0.05500
C3541       C  0.26061295  0.77888480  0.34005171     0.00400
C3542       C  0.26227427  0.81485886  0.34459110    -0.08100
C3543       C  0.29150631  0.83439805  0.33544854     0.62300
H3544       H  0.23438991  0.86067247  0.35466411     0.13000
H3545       H  0.23990281  0.73305424  0.35927466     0.13000
C3546       C  0.19367532  0.76078252  0.39884959     0.62500
F3547       F  0.31730598  0.81202841  0.32957712    -0.22600
F3548       F  0.29964400  0.85654789  0.36144936    -0.20000
F3549       F  0.28525105  0.85365529  0.30728373    -0.19600
F3550       F  0.17825303  0.73346716  0.38372725    -0.19700
F3551       F  0.17147314  0.78260730  0.41419788    -0.20000
F3552       F  0.21405973  0.74783006  0.42347403    -0.22700
C3553       C  0.31202441  0.67476199  0.23533832    -0.05500
C3554       C  0.30727787  0.68645647  0.26847846     0.00400
C3555       C  0.32419753  0.66943039  0.29489703    -0.08200
C3556       C  0.34819777  0.64500103  0.28634119    -0.05500
C3557       C  0.35626936  0.63783905  0.25298255     0.00400
C3558       C  0.33691344  0.65144488  0.22703746    -0.08100
C3559       C  0.34370283  0.64322055  0.19079951     0.62300
H3560       H  0.29779399  0.68614360  0.21537847     0.13000
H3561       H  0.36283256  0.63314460  0.30577320     0.13000
C3562       C  0.31990137  0.67851616  0.33177988     0.62500
F3563       F  0.34646243  0.60787374  0.18631072    -0.22600
F3564       F  0.37178198  0.65833738  0.18210371    -0.20000
F3565       F  0.31959191  0.65549016  0.16965922    -0.19600
F3566       F  0.28801338  0.67993798  0.34003986    -0.19700
F3567       F  0.33312515  0.71014224  0.33895533    -0.20000
F3568       F  0.33456737  0.65399554  0.35209730    -0.22700
C3569       C  0.28339693  0.79979165  0.16379263    -0.05500
C3570       C  0.29545029  0.83237681  0.17218968     0.00400
C3571       C  0.28760234  0.84793610  0.20354256    -0.08200
C3572       C  0.27242446  0.82789132  0.22680989    -0.05500
C3573       C  0.26547613  0.79329128  0.22012172     0.00400
C3574       C  0.26716405  0.78058440  0.18696047    -0.08100
C3575       C  0.25232876  0.74733099  0.17491803     0.62300
H3576       H  0.28764778  0.78855848  0.13922986     0.13000
H3577       H  0.26872652  0.83859718  0.25152932     0.13000
C3578       C  0.29659650  0.88393341  0.21538544     0.62500
F3579       F  0.23227342  0.75435800  0.14790261    -0.22600
F3580       F  0.23429866  0.73245805  0.19916108    -0.20000
F3581       F  0.27607886  0.72405054  0.16485896    -0.19600
F3582       F  0.27074908  0.90037691  0.23044641    -0.19700
F3583       F  0.30601609  0.90466646  0.18999530    -0.20000
F3584       F  0.32105950  0.88119549  0.23887215    -0.22700
C3585       C  0.88945991  0.89672990  0.78325497    -0.05500
C3586       C  0.91915005  0.88663385  0.79754005     0.00400
C3587       C  0.94231644  0.87031060  0.77635373    -0.08200
C3588       C  0.93658894  0.86963341  0.74153178    -0.05500
C3589       C  0.90817808  0.88315006  0.72738521     0.00400
C3590       C  0.88413951  0.89724102  0.74876045    -0.08100
C3591       C  0.85244384  0.91341910  0.73693165     0.62300
H3592       H  0.87061938  0.90715698  0.79904106     0.13000
H3593       H  0.95408687  0.85757015  0.72507321     0.13000
C3594       C  0.97274050  0.85270403  0.78937633     0.62500
F3595       F  0.82793777  0.89171493  0.74416950    -0.22600
F3596       F  0.85166967  0.91984468  0.70324912    -0.20000
F3597       F  0.84692513  0.94470918  0.75335033    -0.19600
F3598       F  0.96829899  0.83891109  0.82054788    -0.19700
F3599       F  0.99689883  0.87624097  0.79098986    -0.20000
F3600       F  0.98209868  0.82562559  0.76836244    -0.22700
C3601       C  0.01267366  0.94607080  0.83880728    -0.05500
C3602       C  0.00003549  0.93358650  0.86817194     0.00400
C3603       C  0.01996319  0.92619223  0.89591401    -0.08200
C3604       C  0.05310960  0.92621048  0.89119470    -0.05500
C3605       C  0.06531202  0.93088710  0.85905800     0.00400
C3606       C  0.04536952  0.94466809  0.83362273    -0.08100
C3607       C  0.05658584  0.95281349  0.79910713     0.62300
H3608       H  0.99668408  0.95350349  0.81836371     0.13000
H3609       H  0.06916273  0.91663350  0.91065758     0.13000
C3610       C  0.00626315  0.91532398  0.92875104     0.62500
F3611       F  0.04449006  0.98496563  0.78989449    -0.22600
F3612       F  0.04517645  0.92819894  0.77691788    -0.20000
F3613       F  0.08946351  0.95338251  0.79741325    -0.19600
F3614       F  0.98977843  0.88514832  0.92406880    -0.19700
F3615       F  0.98554668  0.94101798  0.94055429    -0.20000
F3616       F  0.02994959  0.90957239  0.95271264    -0.22700
C3617       C  0.89047217  0.99215557  0.82392338    -0.05500
C3618       C  0.90158524  0.98705873  0.85698612     0.00400
C3619       C  0.90954363  0.01624530  0.87696451    -0.08200
C3620       C  0.90818168  0.04895922  0.86237349    -0.05500
C3621       C  0.89932168  0.05311401  0.82866694     0.00400
C3622       C  0.89146766  0.02417071  0.80880538    -0.08100
C3623       C  0.88427881  0.02578905  0.77147492     0.62300
H3624       H  0.88424379  0.97038984  0.80808941     0.13000
H3625       H  0.91300206  0.07160472  0.87770695     0.13000
C3626       C  0.92019708  0.01394475  0.91327338     0.62500
F3627       F  0.90151928  0.99984491  0.75500636    -0.22600
F3628       F  0.89248385  0.05680368  0.75774677    -0.20000
F3629       F  0.85205998  0.02095912  0.76583686    -0.19600
F3630       F  0.95270306  0.01911722  0.91570389    -0.19700
F3631       F  0.91368679  0.98233910  0.92683366    -0.20000
F3632       F  0.90439322  0.03922339  0.93202282    -0.22700
C3633       C  0.93023943  0.73618186  0.90678775    -0.05500
C3634       C  0.93699536  0.74477983  0.94025209     0.00400
C3635       C  0.91386851  0.73845709  0.96464073    -0.08200
C3636       C  0.88980612  0.71523550  0.95666225    -0.05500
C3637       C  0.88787942  0.70055256  0.92473618     0.00400
C3638       C  0.90551553  0.71413370  0.89841564    -0.08100
C3639       C  0.89930319  0.70412224  0.86209257     0.62300
H3640       H  0.94640824  0.74401403  0.88766524     0.13000
H3641       H  0.87394182  0.70657113  0.97568348     0.13000
C3642       C  0.91444867  0.75604206  0.99832932     0.62500
F3643       F  0.91935041  0.72070543  0.84081816    -0.22600
F3644       F  0.86823532  0.71349295  0.85326669    -0.20000
F3645       F  0.90392294  0.66889904  0.85733442    -0.19600
F3646       F  0.91697671  0.79098367  0.99350910    -0.19700
F3647       F  0.93995850  0.74341218  0.01717973    -0.20000
F3648       F  0.88666460  0.75127043  0.01556173    -0.22700
C3649       C  0.01619650  0.82716682  0.01510260    -0.05500
C3650       C  0.01915563  0.79103511  0.01571700     0.00400
C3651       C  0.01819865  0.77413810  0.04665259    -0.08200
C3652       C  0.00620370  0.79267377  0.07444858    -0.05500
C3653       C  0.99721627  0.82781540  0.07196503     0.00400
C3654       C  0.00670335  0.84616112  0.04360515    -0.08100
C3655       C  0.00380839  0.88513060  0.04143149     0.62300
H3656       H  0.01836421  0.84032219  0.99157771     0.13000
H3657       H  0.00038666  0.77891270  0.09678530     0.13000
C3658       C  0.02783823  0.73628050  0.04943756     0.62500
F3659       F  0.03208523  0.89763079  0.02977636    -0.22600
F3660       F  0.99801130  0.90052775  0.07224053    -0.20000
F3661       F  0.97929543  0.89433159  0.01948230    -0.19600
F3662       F  0.05788873  0.73080526  0.03617097    -0.19700
F3663       F  0.00627075  0.71610764  0.03211515    -0.20000
F3664       F  0.02919603  0.72602199  0.08240027    -0.22700
C3665       C  0.03922763  0.73556100  0.87718495    -0.05500
C3666       C  0.04779095  0.72907172  0.91077852     0.00400
C3667       C  0.08008511  0.72134411  0.91861365    -0.08200
C3668       C  0.10287984  0.73213258  0.89622584    -0.05500
C3669       C  0.09285963  0.75270581  0.86892259     0.00400
C3670       C  0.06246848  0.74574252  0.85498486    -0.08100
C3671       C  0.05410183  0.74939533  0.81814660     0.62300
H3672       H  0.01439735  0.73676761  0.86921586     0.13000
H3673       H  0.12784724  0.73086384  0.90385373     0.13000
C3674       C  0.09108421  0.70494698  0.95096798     0.62500
F3675       F  0.04540012  0.71767425  0.80521254    -0.22600
F3676       F  0.07989724  0.76049539  0.80047552    -0.20000
F3677       F  0.02846933  0.77221160  0.81337728    -0.19600
F3678       F  0.06600214  0.69069435  0.96750156    -0.19700
F3679       F  0.10503704  0.72953065  0.97144483    -0.20000
F3680       F  0.11339220  0.67878261  0.94426576    -0.22700
C3681       C  0.74557196  0.02982313  0.89517726    -0.05500
C3682       C  0.76492351  0.03087083  0.92424301     0.00400
C3683       C  0.79033638  0.05411412  0.92598770    -0.08200
C3684       C  0.79827165  0.07187039  0.89759938    -0.05500
C3685       C  0.77826304  0.07265211  0.86930720     0.00400
C3686       C  0.75107811  0.05178524  0.86803777    -0.08100
C3687       C  0.72757730  0.05406194  0.83899771     0.62300
H3688       H  0.72560658  0.01266918  0.89439079     0.13000
H3689       H  0.81826182  0.08910960  0.89903016     0.13000
C3690       C  0.80777341  0.06450034  0.95764529     0.62500
F3691       F  0.70445697  0.02935861  0.84079053    -0.22600
F3692       F  0.74353212  0.04915972  0.80926259    -0.20000
F3693       F  0.71251932  0.08634900  0.83915456    -0.19600
F3694       F  0.83949158  0.05395836  0.95540926    -0.19700
F3695       F  0.79448712  0.05107118  0.98568098    -0.20000
F3696       F  0.80623531  0.10015301  0.96118137    -0.22700
C3697       C  0.69792089  0.96892459  0.04434865    -0.05500
C3698       C  0.69680407  0.98854309  0.01502529     0.00400
C3699       C  0.66695192  0.99227633  0.99820420    -0.08200
C3700       C  0.64431617  0.96677230  0.00308788    -0.05500
C3701       C  0.65117893  0.93907994  0.02468524     0.00400
C3702       C  0.67623510  0.94242074  0.04838856    -0.08100
C3703       C  0.68232074  0.91554031  0.07470461     0.62300
H3704       H  0.71931723  0.96929665  0.05990856     0.13000
H3705       H  0.62383922  0.96543833  0.98627030     0.13000
C3706       C  0.66017981  0.01968535  0.97239520     0.62500
F3707       F  0.70641451  0.92477797  0.09691457    -0.22600
F3708       F  0.69116017  0.88452278  0.05946433    -0.20000
F3709       F  0.65474224  0.91163983  0.09251358    -0.19600
F3710       F  0.67059513  0.00813941  0.94149134    -0.19700
F3711       F  0.67533430  0.04981539  0.98134709    -0.20000
F3712       F  0.62769659  0.02728464  0.97011648    -0.22700
C3713       C  0.79374747  0.91087414  0.01824516    -0.05500
C3714       C  0.80451481  0.94054644  0.00244935     0.00400
C3715       C  0.83760672  0.94770705  0.00439402    -0.08200
C3716       C  0.85742082  0.92826921  0.02616143    -0.05500
C3717       C  0.84523637  0.90217832  0.04556557     0.00400
C3718       C  0.81372387  0.89142232  0.03981952    -0.08100
C3719       C  0.80135343  0.85995074  0.05692338     0.62300
H3720       H  0.76887029  0.90432401  0.01531818     0.13000
H3721       H  0.88200873  0.93525639  0.03055097     0.13000
C3722       C  0.85151428  0.97791224  0.98699367     0.62500
F3723       F  0.77103886  0.85188315  0.04552951    -0.22600
F3724       F  0.80014242  0.86583168  0.09102166    -0.20000
F3725       F  0.82156391  0.83181844  0.05045886    -0.19600
F3726       F  0.83777365  0.00768837  0.00000824    -0.19700
F3727       F  0.84555919  0.97560027  0.95298312    -0.20000
F3728       F  0.88424079  0.97953709  0.99189597    -0.22700
C3729       C  0.72139922  0.70287419  0.79950602    -0.05500
C3730       C  0.73616398  0.72289546  0.77553805     0.00400
C3731       C  0.76857963  0.71576925  0.76762894    -0.08200
C3732       C  0.78646933  0.69289313  0.78786413    -0.05500
C3733       C  0.77232038  0.67534402  0.81381378     0.00400
C3734       C  0.73893960  0.67812176  0.81812436    -0.08100
C3735       C  0.72222528  0.65495548  0.84209731     0.62300
H3736       H  0.69646215  0.70829240  0.80490766     0.13000
H3737       H  0.81184315  0.68877898  0.78392839     0.13000
C3738       C  0.78459883  0.73333281  0.73901495     0.62500
F3739       F  0.68980440  0.66254301  0.84318979    -0.22600
F3740       F  0.73462620  0.65886074  0.87405671    -0.20000
F3741       F  0.72651272  0.62085823  0.83183555    -0.19600
F3742       F  0.78606698  0.76844122  0.74539081    -0.19700
F3743       F  0.76734447  0.72763097  0.70980908    -0.20000
F3744       F  0.81541906  0.72049024  0.73419761    -0.22700
C3745       C  0.73259516  0.81809965  0.85218442    -0.05500
C3746       C  0.71512204  0.83311339  0.82537126     0.00400
C3747       C  0.69071440  0.85808411  0.83252540    -0.08200
C3748       C  0.68053392  0.86165477  0.86536644    -0.05500
C3749       C  0.69253924  0.83946337  0.88999095     0.00400
C3750       C  0.72066097  0.81959551  0.88466241    -0.08100
C3751       C  0.73640835  0.79857472  0.91234700     0.62300
H3752       H  0.75273820  0.80083571  0.84669311     0.13000
H3753       H  0.66010108  0.87835968  0.87126882     0.13000
C3754       C  0.67299876  0.87793366  0.80578219     0.62500
F3755       F  0.74492949  0.82025945  0.93853330    -0.22600
F3756       F  0.76373502  0.78103869  0.90157840    -0.20000
F3757       F  0.71549525  0.77460758  0.92372678    -0.19600
F3758       F  0.65883933  0.85474715  0.78436006    -0.19700
F3759       F  0.69421548  0.89769886  0.78915771    -0.20000
F3760       F  0.64926636  0.89991369  0.81839960    -0.22700
C3761       C  0.73341099  0.79758119  0.67681344    -0.05500
C3762       C  0.72130825  0.82079834  0.70125934     0.00400
C3763       C  0.72593666  0.85653317  0.69666935    -0.08200
C3764       C  0.75077700  0.86632688  0.67645993    -0.05500
C3765       C  0.76837115  0.84161732  0.65844506     0.00400
C3766       C  0.75786351  0.80732712  0.65573100    -0.08100
C3767       C  0.77369923  0.78090316  0.63246178     0.62300
H3768       H  0.72703789  0.77072477  0.67739871     0.13000
H3769       H  0.75732758  0.89321399  0.67581778     0.13000
C3770       C  0.70585040  0.88504882  0.71218197     0.62500
F3771       F  0.80526378  0.77513086  0.64187485    -0.22600
F3772       F  0.77253455  0.79304663  0.60028523    -0.20000
F3773       F  0.75857161  0.74957730  0.63256535    -0.19600
F3774       F  0.72417511  0.90287876  0.73527001    -0.19700
F3775       F  0.67932002  0.87238639  0.72698603    -0.20000
F3776       F  0.69533602  0.90767692  0.68767730    -0.22700
loop_ 
_geom_bond_atom_site_label_1 
_geom_bond_atom_site_label_2 
_geom_bond_distance 
_geom_bond_site_symmetry_2 
_ccdc_geom_bond_type 
O1           Ni7   1.987       .  S
O1           C22   1.302       .  A
O2          Ni25   2.016       .  S
O2           C11   1.318       .  A
O3           Ni7   1.882       .  S
O3          Ni25   1.920       .  S
O3          Ni19   1.875       .  S
O3           H26   0.966       .  S
C4           O21   1.315       .  A
C4           O13   1.306       .  A
C4         C1051   1.537       .  S
O5          Ni24   2.001       .  S
O5           C11   1.301       .  A
O6          Ni24   1.973       .  S
O6            C8   1.286       .  A
Ni7          O10   1.985       .  S
Ni7          O12   1.956       .  S
C8           O18   1.272       .  A
C8          C544   1.549       .  S
O9          Ni25   1.975       .  S
O9           C15   1.317       .  A
O10          C15   1.304       .  A
C11        C1606   1.581       .  S
O12          C14   1.277       .  A
O13         Ni24   1.987       .  S
C14          O20   1.256       .  A
C14        C1418   1.527       .  S
C15         C910   1.541       .  S
H16          O17   0.966       .  S
O17         Ni25   1.863       .  S
O17         Ni19   1.907       .  S
O17         Ni24   1.859       .  S
O18         Ni19   1.972       .  S
Ni19         O23   2.033       .  S
Ni19         O21   1.971       .  S
O20         Ni25   1.957       .  S
C22          O23   1.318       .  A
C22        C1788   1.583       .  S
O27         Ni33   2.016       .  S
O27          C48   1.304       .  A
O28         Ni51   1.989       .  S
O28          C37   1.320       .  A
O29         Ni33   1.843       .  S
O29         Ni51   1.865       .  S
O29         Ni45   1.886       .  S
O29          H52   0.967       .  S
C30          O47   1.325       .  A
C30          O39   1.307       .  A
C30         C944   1.588       .  S
O31         Ni50   1.976       .  S
O31          C37   1.300       .  A
O32         Ni50   1.973       .  S
O32          C34   1.284       .  A
Ni33         O36   1.941       .  S
Ni33         O38   1.959       .  S
C34          O44   1.271       .  A
C34        C2128   1.547       .  S
O35         Ni51   2.087       .  S
O35          C41   1.341       .  A
O36          C41   1.297       .  A
C37         C698   1.543       .  S
O38          C40   1.295       .  A
O39         Ni50   2.012       .  S
C40          O46   1.293       .  A
C40        C1787   1.556       .  S
C41        C1344   1.589       .  S
H42          O43   0.966       .  S
O43         Ni51   1.903       .  S
O43         Ni45   1.860       .  S
O43         Ni50   1.864       .  S
O44         Ni45   1.977       .  S
Ni45         O49   1.952       .  S
Ni45         O47   2.019       .  S
O46         Ni51   1.994       .  S
C48          O49   1.303       .  A
C48        C1137   1.556       .  S
C53        C3762   1.493       .  S
C53          N54   1.369       .  A
C53          N58   1.367       .  A
N54          C55   1.362       .  A
C55        C3746   1.480       .  S
C55          N56   1.349       .  A
N56          C57   1.342       .  A
C57        C3730   1.470       .  S
C57          N58   1.353       .  A
C59        C3682   1.478       .  S
C59          N60   1.365       .  A
C59          N64   1.365   1_545  A
N60          C61   1.362   1_545  A
C61        C3698   1.495   1_556  S
C61          N62   1.357   1_556  A
N62          C63   1.351   1_554  A
C63        C3714   1.493   1_556  S
C63          N64   1.358       .  A
C65        C3634   1.476       .  S
C65          N66   1.350       .  A
C65          N70   1.352       .  A
N66          C67   1.347   1_655  A
C67        C3666   1.470       .  S
C67          N68   1.366       .  A
N68          C69   1.361       .  A
C69        C3650   1.471   1_556  S
C69          N70   1.358   1_455  A
C71        C3618   1.477       .  S
C71          N72   1.355       .  A
C71          N76   1.350       .  A
N72          C73   1.356       .  A
C73        C3586   1.501       .  S
C73          N74   1.354       .  A
N74          C75   1.359       .  A
C75        C3602   1.448   1_655  S
C75          N76   1.346       .  A
N77          C82   1.348       .  A
N77          C81   1.350       .  A
N77         H109   1.037       .  S
N78          C85   1.336       .  A
N78          C86   1.333       .  A
N79          C84   1.372       .  A
N79          C83   1.373       .  A
N79         H110   1.042       .  S
N80          C87   1.342       .  A
N80          C88   1.351       .  A
C81          C89   1.388       .  A
C81          C97   1.423       .  A
C82          C98   1.411       .  A
C82          C90   1.385       .  A
C83          C91   1.396       .  A
C83         C100   1.478       .  A
C84          C99   1.472       .  A
C84          C92   1.392       .  A
C85          C97   1.398       .  A
C85          C93   1.386       .  A
C86         C100   1.391       .  A
C86          C94   1.384       .  A
C87          C95   1.385       .  A
C87          C98   1.400       .  A
C88          C96   1.386       .  A
C88          C99   1.400       .  A
C89          C90   1.371       .  A
C89         H101   1.079       .  S
C90         H102   1.077       .  S
C91          C92   1.426       .  A
C91         H103   1.082       .  S
C92         H104   1.082       .  S
C93          C94   1.376       .  A
C93         H105   1.081       .  S
C94         H106   1.081       .  S
C95          C96   1.367       .  A
C95         H107   1.083       .  S
C96         H108   1.083       .  S
C97        C3605   1.471       .  S
C98        C3669   1.508       .  S
C99         C366   1.567       .  S
C100        C414   1.552       .  S
N111        C116   1.344       .  A
N111        C115   1.347       .  A
N111        H143   1.036       .  S
N112        C119   1.350       .  A
N112        C120   1.340       .  A
N113        C118   1.388       .  A
N113        C117   1.390       .  A
N113        H144   1.042       .  S
N114        C121   1.357       .  A
N114        C122   1.357       .  A
C115        C123   1.383       .  A
C115        C131   1.413       .  A
C116        C132   1.402       .  A
C116        C124   1.384       .  A
C117        C125   1.395       .  A
C117        C134   1.500       .  A
C118        C133   1.500       .  A
C118        C126   1.395       .  A
C119        C131   1.406       .  A
C119        C127   1.380       .  A
C120        C134   1.403       .  A
C120        C128   1.386       .  A
C121        C129   1.376       .  A
C121        C132   1.411       .  A
C122        C130   1.388       .  A
C122        C133   1.430       .  A
C123        C124   1.379       .  A
C123        H135   1.078       .  S
C124        H136   1.082       .  S
C125        C126   1.425       .  A
C125        H137   1.082       .  S
C126        H138   1.082       .  S
C127        C128   1.379       .  A
C127        H139   1.082   1_655  S
C128        H140   1.081   1_655  S
C129        C130   1.366       .  A
C129        H141   1.079       .  S
C130        H142   1.076       .  S
C131       C3653   1.494       .  S
C132       C3717   1.485       .  S
C133        C750   1.603       .  S
C134        C470   1.587       .  S
N145        C150   1.346       .  A
N145        C149   1.335       .  A
N145        H177   1.040       .  S
N146        C153   1.359       .  A
N146        C154   1.359       .  A
N147        C152   1.368       .  A
N147        C151   1.351       .  A
N147        H178   1.044       .  S
N148        C155   1.328       .  A
N148        C156   1.326       .  A
C149        C157   1.391       .  A
C149        C165   1.403       .  A
C150        C166   1.404       .  A
C150        C158   1.384       .  A
C151        C159   1.393       .  A
C151        C168   1.440       .  A
C152        C167   1.444       .  A
C152        C160   1.388       .  A
C153        C165   1.424       .  A
C153        C161   1.380       .  A
C154        C168   1.438       .  A
C154        C162   1.395       .  A
C155        C163   1.376       .  A
C155        C166   1.383       .  A
C156        C164   1.390       .  A
C156        C167   1.384       .  A
C157        C158   1.383       .  A
C157        H169   1.082       .  S
C158        H170   1.081       .  S
C159        C160   1.406       .  A
C159        H171   1.081       .  S
C160        H172   1.082       .  S
C161        C162   1.381       .  A
C161        H173   1.082       .  S
C162        H174   1.079       .  S
C163        C164   1.386       .  A
C163        H175   1.078       .  S
C164        H176   1.082       .  S
C165       C3589   1.489       .  S
C166       C3765   1.462       .  S
C167        C458   1.529       .  S
C168       C1291   1.524       .  S
N179        C184   1.334       .  A
N179        C183   1.352       .  A
N179        H211   1.039       .  S
N180        C187   1.346       .  A
N180        C188   1.333       .  A
N181        C186   1.362       .  A
N181        C185   1.361       .  A
N181        H212   1.041       .  S
N182        C189   1.355       .  A
N182        C190   1.361       .  A
C183        C191   1.384       .  A
C183        C199   1.406       .  A
C184        C200   1.397       .  A
C184        C192   1.390       .  A
C185        C193   1.386       .  A
C185        C202   1.434       .  A
C186        C201   1.444       .  A
C186        C194   1.391       .  A
C187        C199   1.389       .  A
C187        C195   1.379       .  A
C188        C202   1.394       .  A
C188        C196   1.392       .  A
C189        C197   1.386       .  A
C189        C200   1.425       .  A
C190        C198   1.388       .  A
C190        C201   1.427       .  A
C191        C192   1.382       .  A
C191        H203   1.082       .  S
C192        H204   1.082       .  S
C193        C194   1.399       .  A
C193        H205   1.082       .  S
C194        H206   1.082       .  S
C195        C196   1.364       .  A
C195        H207   1.082       .  S
C196        H208   1.075       .  S
C197        C198   1.373       .  A
C197        H209   1.082       .  S
C198        H210   1.079       .  S
C199       C3733   1.479       .  S
C200       C3637   1.468       .  S
C201        C395   1.525       .  S
C202       C1261   1.485       .  S
N213        C218   1.354       .  A
N213        C217   1.342       .  A
N213        H245   1.044       .  S
N214        C221   1.357       .  A
N214        C222   1.364       .  A
N215        C220   1.370       .  A
N215        C219   1.377       .  A
N215        H246   1.043       .  S
N216        C223   1.349   1_556  A
N216        C224   1.337       .  A
C217        C225   1.387       .  A
C217        C233   1.397       .  A
C218        C234   1.411   1_556  A
C218        C226   1.388       .  A
C219        C227   1.390       .  A
C219        C236   1.467       .  A
C220        C235   1.463       .  A
C220        C228   1.391       .  A
C221        C233   1.413       .  A
C221        C229   1.381       .  A
C222        C236   1.440       .  A
C222        C230   1.388       .  A
C223        C231   1.376       .  A
C223        C234   1.394       .  A
C224        C232   1.393   1_556  A
C224        C235   1.401       .  A
C225        C226   1.368       .  A
C225        H237   1.082       .  S
C226        H238   1.078       .  S
C227        C228   1.412       .  A
C227        H239   1.082       .  S
C228        H240   1.082       .  S
C229        C230   1.369       .  A
C229        H241   1.082       .  S
C230        H242   1.073       .  S
C231        C232   1.376       .  A
C231        H243   1.082       .  S
C232        H244   1.078       .  S
C233       C3749   1.469       .  S
C234       C3701   1.491       .  S
C235        C496   1.527       .  S
C236        C346   1.578       .  S
N247        C252   1.345       .  A
N247        C251   1.347       .  A
N247        H279   1.044       .  S
N248        C255   1.367       .  A
N248        C256   1.349       .  A
N249        C254   1.387       .  A
N249        C253   1.373       .  A
N249        H280   1.040       .  S
N250        C257   1.340       .  A
N250        C258   1.332       .  A
C251        C259   1.385       .  A
C251        C267   1.395       .  A
C252        C268   1.401       .  A
C252        C260   1.375       .  A
C253        C261   1.390       .  A
C253        C270   1.469       .  A
C254        C269   1.477       .  A
C254        C262   1.390       .  A
C255        C267   1.410       .  A
C255        C263   1.377       .  A
C256        C270   1.431       .  A
C256        C264   1.399       .  A
C257        C265   1.384       .  A
C257        C268   1.399       .  A
C258        C266   1.389       .  A
C258        C269   1.397       .  A
C259        C260   1.369       .  A
C259        H271   1.083       .  S
C260        H272   1.075       .  S
C261        C262   1.407       .  A
C261        H273   1.082       .  S
C262        H274   1.082       .  S
C263        C264   1.358       .  A
C263        H275   1.083       .  S
C264        H276   1.078       .  S
C265        C266   1.386       .  A
C265        H277   1.082       .  S
C266        H278   1.082       .  S
C267       C3685   1.492       .  S
C268       C3621   1.465       .  S
C269       C2001   1.542       .  S
C270        C790   1.524       .  S
O281       Ni287   1.982       .  S
O281        C302   1.293       .  A
O282       Ni305   1.954       .  S
O282        C291   1.306       .  A
O283       Ni287   1.855       .  S
O283       Ni305   1.882       .  S
O283       Ni299   1.879       .  S
O283        H306   0.967       .  S
C284        O301   1.321       .  A
C284        O293   1.299       .  A
C284       C1103   1.541       .  S
O285       Ni304   1.997       .  S
O285        C291   1.304       .  A
O286       Ni304   1.929       .  S
O286        C288   1.291       .  A
Ni287       O290   1.964       .  S
Ni287       O292   1.964       .  S
C288        O298   1.299       .  A
C288        C943   1.561       .  S
O289       Ni305   2.024       .  S
O289        C295   1.326       .  A
O290        C295   1.297       .  A
C291       C2042   1.526       .  S
O292        C294   1.278       .  A
O293       Ni304   1.939       .  S
C294        O300   1.266       .  A
C294       C1560   1.560       .  S
C295       C1840   1.538       .  S
H296        O297   0.966       .  S
O297       Ni305   1.887       .  S
O297       Ni299   1.859       .  S
O297       Ni304   1.818       .  S
O298       Ni299   2.040       .  S
Ni299       O303   1.957       .  S
Ni299       O301   2.013       .  S
O300       Ni305   1.988       .  S
C302        O303   1.308       .  A
C302        C543   1.548       .  S
O307       Ni313   1.918       .  S
O307        C328   1.285       .  A
O308       Ni331   1.986       .  S
O308        C317   1.310       .  A
O309       Ni313   1.860       .  S
O309       Ni331   1.888       .  S
O309       Ni325   1.883       .  S
O309        H332   0.967       .  S
C310        O327   1.319       .  A
C310        O319   1.305       .  A
C310       C1645   1.557       .  S
O311       Ni330   1.967       .  S
O311        C317   1.296       .  A
O312       Ni330   1.966       .  S
O312        C314   1.283       .  A
Ni313       O316   1.986       .  S
Ni313       O318   1.918       .  S
C314        O324   1.272       .  A
C314       C1839   1.565       .  S
O315       Ni331   1.993       .  S
O315        C321   1.317       .  A
O316        C321   1.302       .  A
C317       C2088   1.542       .  S
O318        C320   1.273       .  A
O319       Ni330   1.997       .  S
C320        O326   1.279       .  A
C320       C1378   1.561       .  S
C321        C697   1.545       .  S
H322        O323   0.967       .  S
O323       Ni331   1.889       .  S
O323       Ni325   1.887       .  S
O323       Ni330   1.869       .  S
O324       Ni325   1.994       .  S
Ni325       O329   1.985       .  S
Ni325       O327   1.993       .  S
O326       Ni331   2.011       .  S
C328        O329   1.306       .  A
C328        C909   1.528       .  S
O333       Ni339   1.941       .  S
O333        C354   1.286       .  A
O334       Ni357   1.950       .  S
O334        C343   1.299       .  A
O335       Ni339   1.838       .  S
O335       Ni357   1.858       .  S
O335       Ni351   1.886       .  S
O335        H358   0.965       .  S
C336        O353   1.326       .  A
C336        O345   1.300       .  A
C336        C664   1.529       .  S
O337       Ni356   1.993       .  S
O337        C343   1.297       .  A
O338       Ni356   1.988       .  S
O338        C340   1.276       .  A
Ni339       O342   1.961       .  S
Ni339       O344   1.947       .  S
C340        O350   1.261       .  A
C340       C1605   1.559       .  S
O341       Ni357   1.923       .  S
O341        C347   1.296       .  A
O342        C347   1.296       .  A
C343        C841   1.552       .  S
O344        C346   1.278       .  A
O345       Ni356   1.954       .  S
C346        O352   1.295       .  A
C347       C1171   1.499       .  S
H348        O349   0.967       .  S
O349       Ni357   1.880       .  S
O349       Ni351   1.910       .  S
O349       Ni356   1.897       .  S
O350       Ni351   1.981       .  S
Ni351       O355   2.006       .  S
Ni351       O353   2.012       .  S
O352       Ni357   2.031       .  S
C354        O355   1.314       .  A
C354       C1452   1.509       .  S
O359       Ni365   1.987       .  S
O359        C380   1.295       .  A
O360       Ni383   2.001       .  S
O360        C369   1.319       .  A
O361       Ni365   1.876   1_556  S
O361       Ni383   1.894       .  S
O361       Ni377   1.866   1_556  S
O361        H384   0.967       .  S
C362        O379   1.319       .  A
C362        O371   1.293       .  A
C362       C2195   1.531       .  S
O363       Ni382   1.945       .  S
O363        C369   1.287       .  A
O364       Ni382   1.946       .  S
O364        C366   1.280       .  A
Ni365       O368   1.954   1_554  S
Ni365       O370   1.979       .  S
C366        O376   1.271       .  A
O367       Ni383   2.007       .  S
O367        C373   1.325       .  A
O368        C373   1.299       .  A
C369       C1748   1.541       .  S
O370        C372   1.282       .  A
O371       Ni382   1.957   1_554  S
C372        O378   1.260       .  A
C372       C1104   1.538       .  S
C373        C842   1.527       .  S
H374        O375   0.966       .  S
O375       Ni383   1.874   1_554  S
O375       Ni377   1.878       .  S
O375       Ni382   1.855   1_554  S
O376       Ni377   2.004   1_556  S
Ni377       O381   1.972       .  S
Ni377       O379   1.985       .  S
O378       Ni383   1.951   1_554  S
C380        O381   1.306       .  A
C380        C617   1.562       .  S
O385       Ni391   1.967       .  S
O385        C406   1.296       .  A
O386       Ni409   1.988       .  S
O386        C395   1.310       .  A
O387       Ni391   1.851       .  S
O387       Ni409   1.868   1_454  S
O387       Ni403   1.874   1_455  S
O387        H410   0.966       .  S
C388        O405   1.327       .  A
C388        O397   1.290       .  A
C388       C1908   1.559       .  S
O389       Ni408   1.949   1_556  S
O389        C395   1.294       .  A
O390       Ni408   1.876       .  S
O390        C392   1.277       .  A
Ni391       O394   1.987   1_554  S
Ni391       O396   1.964   1_554  S
C392        O402   1.296       .  A
C392       C1206   1.544       .  S
O393       Ni409   1.990   1_455  S
O393        C399   1.319       .  A
O394        C399   1.305       .  A
O396        C398   1.281       .  A
O397       Ni408   1.928       .  S
C398        O404   1.279       .  A
C398       C1011   1.556       .  S
C399       C1747   1.542       .  S
H400        O401   0.966       .  S
O401       Ni409   1.898       .  S
O401       Ni403   1.881   1_556  S
O401       Ni408   1.822   1_556  S
O402       Ni403   2.047       .  S
Ni403       O407   1.993   1_655  S
Ni403       O405   2.023       .  S
O404       Ni409   1.986   1_455  S
C406        O407   1.315       .  A
C406       C2041   1.542       .  S
O411       Ni417   1.963       .  S
O411        C432   1.297       .  A
O412       Ni435   2.014   1_565  S
O412        C421   1.319       .  A
O413       Ni417   1.809       .  S
O413       Ni435   1.866       .  S
O413       Ni429   1.883   1_545  S
O413        H436   0.966       .  S
C414        O431   1.315       .  A
C414        O423   1.303       .  A
O415       Ni434   1.936       .  S
O415        C421   1.290       .  A
O416       Ni434   1.959       .  S
O416        C418   1.283       .  A
Ni417       O420   1.936       .  S
Ni417       O422   1.885       .  S
C418        O428   1.272       .  A
C418       C1713   1.556       .  S
O419       Ni435   2.018       .  S
O419        C425   1.333       .  A
O420        C425   1.291       .  A
C421        C663   1.531       .  S
O422        C424   1.280       .  A
O423       Ni434   2.003       .  S
C424        O430   1.305       .  A
C424        C978   1.570       .  S
C425       C1377   1.558       .  S
H426        O427   0.967       .  S
O427       Ni435   1.879   1_565  S
O427       Ni429   1.857       .  S
O427       Ni434   1.857       .  S
O428       Ni429   1.988       .  S
Ni429       O433   1.946   1_565  S
Ni429       O431   1.975       .  S
O430       Ni435   2.069       .  S
C432        O433   1.296       .  A
C432       C2161   1.506       .  S
O437       Ni443   1.966       .  S
O437        C458   1.292       .  A
O438       Ni461   1.991       .  S
O438        C447   1.316       .  A
O439       Ni443   1.874       .  S
O439       Ni461   1.873       .  S
O439       Ni455   1.876       .  S
O439        H462   0.967       .  S
C440        O457   1.315       .  A
C440        O449   1.294       .  A
C440       C1451   1.531       .  S
O441       Ni460   1.917       .  S
O441        C447   1.279       .  A
O442       Ni460   1.920       .  S
O442        C444   1.275       .  A
Ni443       O446   1.974       .  S
Ni443       O448   1.980       .  S
C444        O454   1.272       .  A
C444        C583   1.557       .  S
O445       Ni461   1.988       .  S
O445        C451   1.323       .  A
O446        C451   1.298       .  A
C447       C1052   1.508       .  S
O448        C450   1.281       .  A
O449       Ni460   1.953       .  S
C450        O456   1.269       .  A
C450       C1680   1.551       .  S
C451       C1941   1.547       .  S
H452        O453   0.967       .  S
O453       Ni461   1.870       .  S
O453       Ni455   1.875       .  S
O453       Ni460   1.848       .  S
O454       Ni455   1.998       .  S
Ni455       O459   1.945       .  S
Ni455       O457   1.995       .  S
O456       Ni461   1.980       .  S
C458        O459   1.306       .  A
O463       Ni469   1.960   1_655  S
O463        C484   1.291       .  A
O464       Ni487   1.989       .  S
O464        C473   1.313       .  A
O465       Ni469   1.864       .  S
O465       Ni487   1.887       .  S
O465       Ni481   1.885   1_455  S
O465        H488   0.966   1_455  S
C466        O483   1.330       .  A
C466        O475   1.288       .  A
C466       C1205   1.515       .  S
O467       Ni486   1.950       .  S
O467        C473   1.284       .  A
O468       Ni486   1.981   1_655  S
O468        C470   1.279       .  A
Ni469       O472   1.976       .  S
Ni469       O474   1.958       .  S
C470        O480   1.274       .  A
O471       Ni487   1.973       .  S
O471        C477   1.315       .  A
O472        C477   1.302       .  A
C473       C2194   1.532       .  S
O474        C476   1.279       .  A
O475       Ni486   1.924   1_655  S
C476        O482   1.284       .  A
C476       C1559   1.579       .  S
C477        C732   1.526       .  S
H478        O479   0.967       .  S
O479       Ni487   1.890       .  S
O479       Ni481   1.896   1_455  S
O479       Ni486   1.883       .  S
O480       Ni481   2.026       .  S
Ni481       O485   1.984       .  S
Ni481       O483   2.043       .  S
O482       Ni487   2.013       .  S
C484        O485   1.317       .  A
C484       C1942   1.549       .  S
O489       Ni495   1.964   1_564  S
O489        C510   1.293       .  A
O490       Ni513   2.000       .  S
O490        C499   1.322       .  A
O491       Ni495   1.820       .  S
O491       Ni513   1.866       .  S
O491       Ni507   1.878   1_546  S
O491        H514   0.967   1_545  S
C492        O509   1.321       .  A
C492        O501   1.302   1_565  A
C492       C1239   1.566       .  S
O493       Ni512   1.975       .  S
O493        C499   1.297       .  A
O494       Ni512   1.965   1_565  S
O494        C496   1.283       .  A
Ni495       O498   1.906       .  S
Ni495       O500   1.921   1_556  S
C496        O506   1.265       .  A
O497       Ni513   2.058       .  S
O497        C503   1.337       .  A
O498        C503   1.288       .  A
C499       C1520   1.564       .  S
O500        C502   1.284       .  A
O501       Ni512   1.997   1_554  S
C502        O508   1.303       .  A
C502       C2127   1.551       .  S
C503        C977   1.546       .  S
H504        O505   0.966   1_554  S
O505       Ni513   1.886       .  S
O505       Ni507   1.874   1_546  S
O505       Ni512   1.875       .  S
O506       Ni507   1.954   1_556  S
Ni507       O511   1.998       .  S
Ni507       O509   1.987       .  S
O508       Ni513   2.034   1_554  S
C510        O511   1.312       .  A
C510        C618   1.531       .  S
C515       C3541   1.459       .  S
C515        N516   1.353       .  A
C515        N520   1.349       .  A
N516        C517   1.352       .  A
C517       C3573   1.473       .  S
C517        N518   1.352       .  A
N518        C519   1.358       .  A
C519       C3554   1.485       .  S
C519        N520   1.355       .  A
N521        C526   1.353       .  A
N521        C525   1.341       .  A
N521        H553   1.040       .  S
N522        C529   1.352       .  A
N522        C530   1.352       .  A
N523        C528   1.375       .  A
N523        C527   1.371       .  A
N523        H554   1.039       .  S
N524        C531   1.340       .  A
N524        C532   1.341       .  A
C525        C533   1.386       .  A
C525        C541   1.402       .  A
C526        C542   1.409       .  A
C526        C534   1.387       .  A
C527        C535   1.394       .  A
C527        C544   1.474       .  A
C528        C543   1.469       .  A
C528        C536   1.391       .  A
C529        C541   1.407       .  A
C529        C537   1.382       .  A
C530        C544   1.424       .  A
C530        C538   1.388       .  A
C531        C539   1.389       .  A
C531        C542   1.396       .  A
C532        C540   1.376       .  A
C532        C543   1.394       .  A
C533        C534   1.379       .  A
C533        H545   1.082       .  S
C534        H546   1.082       .  S
C535        C536   1.417       .  A
C535        H547   1.082       .  S
C536        H548   1.082       .  S
C537        C538   1.368       .  A
C537        H549   1.082       .  S
C538        H550   1.077       .  S
C539        C540   1.376       .  A
C539        H551   1.079       .  S
C540        H552   1.071       .  S
C541       C3525   1.481       .  S
C542       C3557   1.488       .  S
C555       C3490   1.452       .  S
C555        N556   1.352       .  A
C555        N560   1.349       .  A
N556        C557   1.350       .  A
C557       C3474   1.462       .  S
C557        N558   1.357       .  A
N558        C559   1.351       .  A
C559       C3506   1.450       .  S
C559        N560   1.354       .  A
N561        C566   1.344       .  A
N561        C565   1.336       .  A
N561        H593   1.044       .  S
N562        C569   1.355       .  A
N562        C570   1.354       .  A
N563        C568   1.378       .  A
N563        C567   1.362       .  A
N563        H594   1.043       .  S
N564        C571   1.333       .  A
N564        C572   1.326       .  A
C565        C573   1.390       .  A
C565        C581   1.397       .  A
C566        C582   1.406       .  A
C566        C574   1.383       .  A
C567        C575   1.392       .  A
C567        C584   1.461       .  A
C568        C583   1.467       .  A
C568        C576   1.390       .  A
C569        C581   1.422       .  A
C569        C577   1.388       .  A
C570        C584   1.416       .  A
C570        C578   1.386       .  A
C571        C579   1.376       .  A
C571        C582   1.390       .  A
C572        C580   1.383       .  A
C572        C583   1.393       .  A
C573        C574   1.387       .  A
C573        H585   1.082       .  S
C574        H586   1.080       .  S
C575        C576   1.416       .  A
C575        H587   1.082       .  S
C576        H588   1.082       .  S
C577        C578   1.374       .  A
C577        H589   1.080       .  S
C578        H590   1.082       .  S
C579        C580   1.383       .  A
C579        H591   1.082       .  S
C580        H592   1.063       .  S
C581       C3477   1.489       .  S
C582       C3458   1.464       .  S
C584        C757   1.543       .  S
N595        C600   1.343       .  A
N595        C599   1.341       .  A
N595        H627   1.043       .  S
N596        C603   1.354       .  A
N596        C604   1.347       .  A
N597        C602   1.380       .  A
N597        C601   1.372       .  A
N597        H628   1.040       .  S
N598        C605   1.346       .  A
N598        C606   1.344       .  A
C599        C607   1.387       .  A
C599        C615   1.398       .  A
C600        C616   1.399       .  A
C600        C608   1.385       .  A
C601        C609   1.391   1_554  A
C601        C618   1.471       .  A
C602        C617   1.472       .  A
C602        C610   1.390   1_554  A
C603        C615   1.400       .  A
C603        C611   1.378       .  A
C604        C618   1.417       .  A
C604        C612   1.394       .  A
C605        C613   1.377       .  A
C605        C616   1.399       .  A
C606        C614   1.391       .  A
C606        C617   1.405       .  A
C607        C608   1.382       .  A
C607        H619   1.082       .  S
C608        H620   1.082       .  S
C609        C610   1.414       .  A
C609        H621   1.082       .  S
C610        H622   1.082       .  S
C611        C612   1.366       .  A
C611        H623   1.083       .  S
C612        H624   1.077       .  S
C613        C614   1.365       .  A
C613        H625   1.076       .  S
C614        H626   1.082       .  S
C615       C3493   1.477       .  S
C616       C3570   1.483       .  S
C629       C3429   1.450   1_565  S
C629        N630   1.349   1_565  A
C629        N634   1.348       .  A
N630        C631   1.345   1_545  A
C631       C3445   1.460       .  S
C631        N632   1.365       .  A
N632        C633   1.361       .  A
C633       C3410   1.468       .  S
C633        N634   1.357       .  A
C635       C3522   1.489       .  S
C635        N636   1.364       .  A
C635        N640   1.345       .  A
N636        C637   1.358       .  A
C637       C3397   1.456       .  S
C637        N638   1.354       .  A
N638        C639   1.346       .  A
C639       C3461   1.445       .  S
C639        N640   1.349       .  A
N641        C646   1.345       .  A
N641        C645   1.345       .  A
N641        H673   1.041       .  S
N642        C649   1.350       .  A
N642        C650   1.347       .  A
N643        C648   1.372       .  A
N643        C647   1.373       .  A
N643        H674   1.042       .  S
N644        C651   1.359       .  A
N644        C652   1.353       .  A
C645        C653   1.386       .  A
C645        C661   1.404       .  A
C646        C662   1.404       .  A
C646        C654   1.387       .  A
C647        C655   1.390       .  A
C647        C664   1.460       .  A
C648        C663   1.457       .  A
C648        C656   1.389       .  A
C649        C661   1.412       .  A
C649        C657   1.386       .  A
C650        C664   1.403       .  A
C650        C658   1.386       .  A
C651        C659   1.381       .  A
C651        C662   1.418       .  A
C652        C660   1.386       .  A
C652        C663   1.420       .  A
C653        C654   1.380       .  A
C653        H665   1.082       .  S
C654        H666   1.082       .  S
C655        C656   1.405       .  A
C655        H667   1.082       .  S
C656        H668   1.082       .  S
C657        C658   1.375       .  A
C657        H669   1.082       .  S
C658        H670   1.081       .  S
C659        C660   1.363       .  A
C659        H671   1.080       .  S
C660        H672   1.071       .  S
C661       C3394   1.489       .  S
C662       C3413   1.497       .  S
N675        C680   1.339       .  A
N675        C679   1.341       .  A
N675        H707   1.038       .  S
N676        C683   1.354       .  A
N676        C684   1.349       .  A
N677        C682   1.376       .  A
N677        C681   1.373       .  A
N677        H708   1.041       .  S
N678        C685   1.348       .  A
N678        C686   1.345       .  A
C679        C687   1.387       .  A
C679        C695   1.396       .  A
C680        C696   1.393       .  A
C680        C688   1.385       .  A
C681        C689   1.390       .  A
C681        C698   1.467       .  A
C682        C697   1.470       .  A
C682        C690   1.391       .  A
C683        C695   1.408       .  A
C683        C691   1.385       .  A
C684        C698   1.409       .  A
C684        C692   1.389       .  A
C685        C693   1.385       .  A
C685        C696   1.407       .  A
C686        C694   1.389       .  A
C686        C697   1.404       .  A
C687        C688   1.376       .  A
C687        H699   1.082       .  S
C688        H700   1.083       .  S
C689        C690   1.413       .  A
C689        H701   1.082       .  S
C690        H702   1.082       .  S
C691        C692   1.363       .  A
C691        H703   1.082       .  S
C692        H704   1.083       .  S
C693        C694   1.373       .  A
C693        H705   1.082       .  S
C694        H706   1.081       .  S
C695       C3509   1.471       .  S
C696       C3426   1.466       .  S
N709        C714   1.350       .  A
N709        C713   1.332       .  A
N709        H741   1.046       .  S
N710        C717   1.350       .  A
N710        C718   1.346       .  A
N711        C716   1.370       .  A
N711        C715   1.369       .  A
N711        H742   1.036       .  S
N712        C719   1.343       .  A
N712        C720   1.341       .  A
C713        C721   1.387       .  A
C713        C729   1.393       .  A
C714        C730   1.405       .  A
C714        C722   1.385       .  A
C715        C723   1.396       .  A
C715        C732   1.469       .  A
C716        C731   1.455       .  A
C716        C724   1.386       .  A
C717        C729   1.405       .  A
C717        C725   1.378       .  A
C718        C732   1.430       .  A
C718        C726   1.396       .  A
C719        C727   1.386       .  A
C719        C730   1.394       .  A
C720        C728   1.385       .  A
C720        C731   1.388       .  A
C721        C722   1.382       .  A
C721        H733   1.083       .  S
C722        H734   1.082       .  S
C723        C724   1.409       .  A
C723        H735   1.082   1_455  S
C724        H736   1.082   1_455  S
C725        C726   1.371       .  A
C725        H737   1.082       .  S
C726        H738   1.078       .  S
C727        C728   1.365       .  A
C727        H739   1.081       .  S
C728        H740   1.083       .  S
C729       C3538   1.499       .  S
C730       C3442   1.505       .  S
C731       C1298   1.525       .  S
O743       Ni749   1.992       .  S
O743        C764   1.296       .  A
O744       Ni767   2.015       .  S
O744        C753   1.318       .  A
O745       Ni749   1.906       .  S
O745       Ni767   1.915       .  S
O745       Ni761   1.903       .  S
O745        H768   0.967       .  S
C746        O763   1.330       .  A
C746        O755   1.302       .  A
C746       C2229   1.545       .  S
O747       Ni766   1.960       .  S
O747        C753   1.289       .  A
O748       Ni766   1.960       .  S
O748        C750   1.282       .  A
Ni749       O752   1.955       .  S
Ni749       O754   1.988   1_565  S
C750        O760   1.291       .  A
O751       Ni767   2.016       .  S
O751        C757   1.327       .  A
O752        C757   1.297       .  A
C753       C1240   1.560       .  S
O754        C756   1.282       .  A
O755       Ni766   1.972   1_545  S
C756        O762   1.262       .  A
C756       C1343   1.562       .  S
H758        O759   0.966   1_545  S
O759       Ni767   1.881       .  S
O759       Ni761   1.904       .  S
O759       Ni766   1.858       .  S
O760       Ni761   2.043       .  S
Ni761       O765   2.020   1_565  S
Ni761       O763   2.038   1_565  S
O762       Ni767   1.982   1_545  S
C764        O765   1.331   1_565  A
C764       C1976   1.595   1_565  S
O769       Ni775   1.959       .  S
O769        C790   1.298       .  A
O770       Ni793   1.987       .  S
O770        C779   1.316       .  A
O771       Ni775   1.826       .  S
O771       Ni793   1.847   1_556  S
O771       Ni787   1.888       .  S
O771        H794   0.967       .  S
C772        O789   1.332       .  A
C772        O781   1.297       .  A
C772       C2228   1.563       .  S
O773       Ni792   1.980       .  S
O773        C779   1.300       .  A
O774       Ni792   1.912       .  S
O774        C776   1.286       .  A
Ni775       O778   1.916       .  S
Ni775       O780   1.940       .  S
C776        O786   1.303       .  A
C776       C1907   1.543       .  S
O777       Ni793   2.084   1_556  S
O777        C783   1.347       .  A
O778        C783   1.287       .  A
C779       C1138   1.540       .  S
O780        C782   1.288       .  A
O781       Ni792   1.947       .  S
C782        O788   1.293       .  A
C782       C1519   1.550       .  S
C783        C875   1.568       .  S
H784        O785   0.967       .  S
O785       Ni793   1.907       .  S
O785       Ni787   1.862   1_554  S
O785       Ni792   1.820       .  S
O786       Ni787   2.036   1_554  S
Ni787       O791   1.990       .  S
Ni787       O789   2.039   1_556  S
O788       Ni793   2.006   1_556  S
C790        O791   1.312       .  A
C795       C3349   1.467       .  S
C795        N796   1.364       .  A
C795        N800   1.358       .  A
N796        C797   1.358       .  A
C797       C3362   1.479       .  S
C797        N798   1.352       .  A
N798        C799   1.348       .  A
C799       C3378   1.477       .  S
C799        N800   1.359       .  A
C801       C3314   1.466       .  S
C801        N802   1.347       .  A
C801        N806   1.357   1_554  A
N802        C803   1.350   1_554  A
C803       C3298   1.443       .  S
C803        N804   1.350       .  A
N804        C805   1.352       .  A
C805       C3330   1.464       .  S
C805        N806   1.352       .  A
C807       C3285   1.458       .  S
C807        N808   1.358       .  A
C807        N812   1.354       .  A
N808        C809   1.364       .  A
C809       C3266   1.476       .  S
C809        N810   1.355       .  A
N810        C811   1.354       .  A
C811       C3250   1.455       .  S
C811        N812   1.346       .  A
C813       C3221   1.465       .  S
C813        N814   1.357       .  A
C813        N818   1.350       .  A
N814        C815   1.358       .  A
C815       C3234   1.466       .  S
C815        N816   1.356       .  A
N816        C817   1.358       .  A
C817       C3205   1.484       .  S
C817        N818   1.347       .  A
N819        C824   1.349       .  A
N819        C823   1.342       .  A
N819        H851   1.035       .  S
N820        C827   1.356       .  A
N820        C828   1.358       .  A
N821        C826   1.378       .  A
N821        C825   1.362       .  A
N821        H852   1.040       .  S
N822        C829   1.339       .  A
N822        C830   1.335       .  A
C823        C831   1.389       .  A
C823        C839   1.408       .  A
C824        C840   1.414       .  A
C824        C832   1.387       .  A
C825        C833   1.393       .  A
C825        C842   1.461       .  A
C826        C841   1.457       .  A
C826        C834   1.387       .  A
C827        C839   1.422       .  A
C827        C835   1.383       .  A
C828        C842   1.430       .  A
C828        C836   1.391       .  A
C829        C837   1.380       .  A
C829        C840   1.388       .  A
C830        C838   1.388       .  A
C830        C841   1.395       .  A
C831        C832   1.379       .  A
C831        H843   1.082       .  S
C832        H844   1.080       .  S
C833        C834   1.409       .  A
C833        H845   1.082       .  S
C834        H846   1.082       .  S
C835        C836   1.373       .  A
C835        H847   1.083       .  S
C836        H848   1.079       .  S
C837        C838   1.377       .  A
C837        H849   1.082       .  S
C838        H850   1.081       .  S
C839       C3202   1.481       .  S
C840       C3269   1.475       .  S
N853        C858   1.344       .  A
N853        C857   1.342       .  A
N853        H885   1.040       .  S
N854        C861   1.362       .  A
N854        C862   1.357       .  A
N855        C860   1.388       .  A
N855        C859   1.380       .  A
N855        H886   1.041       .  S
N856        C863   1.336       .  A
N856        C864   1.336       .  A
C857        C865   1.384       .  A
C857        C873   1.397       .  A
C858        C874   1.408       .  A
C858        C866   1.386       .  A
C859        C867   1.393       .  A
C859        C876   1.485       .  A
C860        C875   1.491       .  A
C860        C868   1.392       .  A
C861        C873   1.420       .  A
C861        C869   1.384       .  A
C862        C876   1.424       .  A
C862        C870   1.389       .  A
C863        C871   1.386       .  A
C863        C874   1.394       .  A
C864        C872   1.386       .  A
C864        C875   1.383       .  A
C865        C866   1.378       .  A
C865        H877   1.082       .  S
C866        H878   1.082       .  S
C867        C868   1.419       .  A
C867        H879   1.082       .  S
C868        H880   1.082       .  S
C869        C870   1.360       .  A
C869        H881   1.080       .  S
C870        H882   1.078       .  S
C871        C872   1.375       .  A
C871        H883   1.082       .  S
C872        H884   1.083       .  S
C873       C3253   1.488       .  S
C874       C3301   1.465       .  S
C876       C1264   1.571       .  S
N887        C892   1.342       .  A
N887        C891   1.344       .  A
N887        H919   1.043       .  S
N888        C895   1.342       .  A
N888        C896   1.338       .  A
N889        C894   1.359       .  A
N889        C893   1.372       .  A
N889        H920   1.041       .  S
N890        C897   1.358       .  A
N890        C898   1.359       .  A
C891        C899   1.387       .  A
C891        C907   1.406       .  A
C892        C908   1.400       .  A
C892        C900   1.386       .  A
C893        C901   1.387       .  A
C893        C910   1.452       .  A
C894        C909   1.454       .  A
C894        C902   1.394       .  A
C895        C907   1.400       .  A
C895        C903   1.377       .  A
C896        C910   1.393       .  A
C896        C904   1.384       .  A
C897        C905   1.376       .  A
C897        C908   1.417       .  A
C898        C906   1.400       .  A
C898        C909   1.441       .  A
C899        C900   1.384       .  A
C899        H911   1.082       .  S
C900        H912   1.082       .  S
C901        C902   1.407       .  A
C901        H913   1.082       .  S
C902        H914   1.081       .  S
C903        C904   1.372       .  A
C903        H915   1.067       .  S
C904        H916   1.083       .  S
C905        C906   1.364       .  A
C905        H917   1.083       .  S
C906        H918   1.074       .  S
C907       C3282   1.490       .  S
C908       C3365   1.492       .  S
N921        C926   1.347       .  A
N921        C925   1.339       .  A
N921        H953   1.042       .  S
N922        C929   1.361       .  A
N922        C930   1.362       .  A
N923        C928   1.384       .  A
N923        C927   1.380       .  A
N923        H954   1.038       .  S
N924        C931   1.341       .  A
N924        C932   1.332       .  A
C925        C933   1.395       .  A
C925        C941   1.405       .  A
C926        C942   1.403       .  A
C926        C934   1.381       .  A
C927        C935   1.394       .  A
C927        C944   1.489       .  A
C928        C943   1.487       .  A
C928        C936   1.392       .  A
C929        C941   1.428       .  A
C929        C937   1.387       .  A
C930        C944   1.429       .  A
C930        C938   1.385       .  A
C931        C939   1.385       .  A
C931        C942   1.395       .  A
C932        C940   1.387       .  A
C932        C943   1.384       .  A
C933        C934   1.386       .  A
C933        H945   1.082       .  S
C934        H946   1.082       .  S
C935        C936   1.422       .  A
C935        H947   1.082       .  S
C936        H948   1.082       .  S
C937        C938   1.367       .  A
C937        H949   1.080       .  S
C938        H950   1.079       .  S
C939        C940   1.379       .  A
C939        H951   1.082       .  S
C940        H952   1.082       .  S
C941       C3317   1.488       .  S
C942       C3237   1.478       .  S
N955        C960   1.340       .  A
N955        C959   1.351       .  A
N955        H987   1.043       .  S
N956        C963   1.342       .  A
N956        C964   1.336       .  A
N957        C962   1.370       .  A
N957        C961   1.376       .  A
N957        H988   1.034       .  S
N958        C965   1.353       .  A
N958        C966   1.359       .  A
C959        C967   1.389       .  A
C959        C975   1.410       .  A
C960        C976   1.394       .  A
C960        C968   1.385       .  A
C961        C969   1.386       .  A
C961        C978   1.466       .  A
C962        C977   1.474       .  A
C962        C970   1.393       .  A
C963        C975   1.391       .  A
C963        C971   1.380       .  A
C964        C978   1.403       .  A
C964        C972   1.389       .  A
C965        C973   1.382       .  A
C965        C976   1.415       .  A
C966        C974   1.392       .  A
C966        C977   1.430       .  A
C967        C968   1.375       .  A
C967        H979   1.081       .  S
C968        H980   1.083       .  S
C969        C970   1.414       .  A
C969        H981   1.081   1_545  S
C970        H982   1.082       .  S
C971        C972   1.381       .  A
C971        H983   1.082       .  S
C972        H984   1.080       .  S
C973        C974   1.357       .  A
C973        H985   1.080       .  S
C974        H986   1.077       .  S
C975       C3346   1.481       .  S
C976       C3333   1.464       .  S
N989        C994   1.342       .  A
N989        C993   1.353       .  A
N989       H1021   1.039       .  S
N990        C997   1.333       .  A
N990        C998   1.334       .  A
N991        C996   1.371       .  A
N991        C995   1.375       .  A
N991       H1022   1.036       .  S
N992        C999   1.357       .  A
N992       C1000   1.356       .  A
C993       C1001   1.388       .  A
C993       C1009   1.406       .  A
C994       C1010   1.402       .  A
C994       C1002   1.387       .  A
C995       C1003   1.391       .  A
C995       C1012   1.471       .  A
C996       C1011   1.470       .  A
C996       C1004   1.392       .  A
C997       C1009   1.398       .  A
C997       C1005   1.389       .  A
C998       C1012   1.394       .  A
C998       C1006   1.386       .  A
C999       C1007   1.373       .  A
C999       C1010   1.401       .  A
C1000      C1008   1.383       .  A
C1000      C1011   1.434       .  A
C1001      C1002   1.368       .  A
C1001      H1013   1.083       .  S
C1002      H1014   1.082       .  S
C1003      C1004   1.415       .  A
C1003      H1015   1.081   1_455  S
C1004      H1016   1.082       .  S
C1005      C1006   1.383       .  A
C1005      H1017   1.082       .  S
C1006      H1018   1.082       .  S
C1007      C1008   1.357       .  A
C1007      H1019   1.083       .  S
C1008      H1020   1.059       .  S
C1009      C3381   1.488       .  S
C1010      C3218   1.473       .  S
C1012      C1994   1.541       .  S
C1023      C3186   1.479       .  S
C1023      N1024   1.348       .  A
C1023      N1028   1.355       .  A
N1024      C1025   1.353       .  A
C1025      C3157   1.445       .  S
C1025      N1026   1.351       .  A
N1026      C1027   1.351       .  A
C1027      C3170   1.449       .  S
C1027      N1028   1.352       .  A
N1029      C1034   1.331       .  A
N1029      C1033   1.351       .  A
N1029      H1061   1.040       .  S
N1030      C1037   1.340       .  A
N1030      C1038   1.329       .  A
N1031      C1036   1.364       .  A
N1031      C1035   1.367       .  A
N1031      H1062   1.040       .  S
N1032      C1039   1.352       .  A
N1032      C1040   1.359       .  A
C1033      C1041   1.384       .  A
C1033      C1049   1.412       .  A
C1034      C1050   1.387       .  A
C1034      C1042   1.386       .  A
C1035      C1043   1.387       .  A
C1035      C1052   1.446       .  A
C1036      C1051   1.457       .  A
C1036      C1044   1.392       .  A
C1037      C1049   1.390       .  A
C1037      C1045   1.384       .  A
C1038      C1052   1.374       .  A
C1038      C1046   1.385       .  A
C1039      C1047   1.381       .  A
C1039      C1050   1.409       .  A
C1040      C1048   1.393       .  A
C1040      C1051   1.428       .  A
C1041      C1042   1.374       .  A
C1041      H1053   1.078       .  S
C1042      H1054   1.080       .  S
C1043      C1044   1.408       .  A
C1043      H1055   1.082       .  S
C1044      H1056   1.082       .  S
C1045      C1046   1.375       .  A
C1045      H1057   1.082       .  S
C1046      H1058   1.079       .  S
C1047      C1048   1.360       .  A
C1047      H1059   1.083       .  S
C1048      H1060   1.076       .  S
C1049      C3154   1.486       .  S
C1050      C3138   1.472       .  S
C1063      C3093   1.466       .  S
C1063      N1064   1.361       .  A
C1063      N1068   1.351       .  A
N1064      C1065   1.368       .  A
C1065      C3106   1.487       .  S
C1065      N1066   1.356       .  A
N1066      C1067   1.356       .  A
C1067      C3125   1.469   1_554  S
C1067      N1068   1.348       .  A
C1069      C3058   1.461       .  S
C1069      N1070   1.368       .  A
C1069      N1074   1.352       .  A
N1070      C1071   1.360       .  A
C1071      C3074   1.484       .  S
C1071      N1072   1.349       .  A
N1072      C1073   1.352       .  A
C1073      C3042   1.470   1_554  S
C1073      N1074   1.351       .  A
C1075      C3141   1.452       .  S
C1075      N1076   1.364       .  A
C1075      N1080   1.352       .  A
N1076      C1077   1.358       .  A
C1077      C3026   1.488       .  S
C1077      N1078   1.355       .  A
N1078      C1079   1.350       .  A
C1079      C3010   1.452       .  S
C1079      N1080   1.349       .  A
N1081      C1086   1.346       .  A
N1081      C1085   1.353       .  A
N1081      H1113   1.037       .  S
N1082      C1089   1.337       .  A
N1082      C1090   1.331       .  A
N1083      C1088   1.367       .  A
N1083      C1087   1.371       .  A
N1083      H1114   1.035       .  S
N1084      C1091   1.353       .  A
N1084      C1092   1.356       .  A
C1085      C1093   1.385       .  A
C1085      C1101   1.411       .  A
C1086      C1102   1.403       .  A
C1086      C1094   1.386       .  A
C1087      C1095   1.388       .  A
C1087      C1104   1.462       .  A
C1088      C1103   1.467       .  A
C1088      C1096   1.393       .  A
C1089      C1101   1.395       .  A
C1089      C1097   1.384       .  A
C1090      C1104   1.400       .  A
C1090      C1098   1.388       .  A
C1091      C1099   1.379       .  A
C1091      C1102   1.410       .  A
C1092      C1100   1.396       .  A
C1092      C1103   1.436       .  A
C1093      C1094   1.368       .  A
C1093      H1105   1.075       .  S
C1094      H1106   1.083       .  S
C1095      C1096   1.413       .  A
C1095      H1107   1.082       .  S
C1096      H1108   1.082       .  S
C1097      C1098   1.379       .  A
C1097      H1109   1.083       .  S
C1098      H1110   1.078       .  S
C1099      C1100   1.371       .  A
C1099      H1111   1.083       .  S
C1100      H1112   1.080       .  S
C1101      C3045   1.481       .  S
C1102      C3013   1.475       .  S
N1115      C1120   1.353       .  A
N1115      C1119   1.350       .  A
N1115      H1147   1.041       .  S
N1116      C1123   1.354       .  A
N1116      C1124   1.354       .  A
N1117      C1122   1.379       .  A
N1117      C1121   1.370       .  A
N1117      H1148   1.042       .  S
N1118      C1125   1.340       .  A
N1118      C1126   1.335       .  A
C1119      C1127   1.378       .  A
C1119      C1135   1.406       .  A
C1120      C1136   1.417       .  A
C1120      C1128   1.379       .  A
C1121      C1129   1.394       .  A
C1121      C1138   1.472       .  A
C1122      C1137   1.470       .  A
C1122      C1130   1.390       .  A
C1123      C1135   1.409       .  A
C1123      C1131   1.379       .  A
C1124      C1138   1.426       .  A
C1124      C1132   1.397       .  A
C1125      C1133   1.383       .  A
C1125      C1136   1.386       .  A
C1126      C1134   1.387       .  A
C1126      C1137   1.392       .  A
C1127      C1128   1.377       .  A
C1127      H1139   1.080       .  S
C1128      H1140   1.075       .  S
C1129      C1130   1.415       .  A
C1129      H1141   1.082       .  S
C1130      H1142   1.082       .  S
C1131      C1132   1.364       .  A
C1131      H1143   1.083       .  S
C1132      H1144   1.078       .  S
C1133      C1134   1.366       .  A
C1133      H1145   1.075       .  S
C1134      H1146   1.080       .  S
C1135      C3090   1.495       .  S
C1136      C3029   1.488       .  S
N1149      C1154   1.352       .  A
N1149      C1153   1.348       .  A
N1149      H1181   1.041       .  S
N1150      C1157   1.346       .  A
N1150      C1158   1.346       .  A
N1151      C1156   1.356       .  A
N1151      C1155   1.367       .  A
N1151      H1182   1.038       .  S
N1152      C1159   1.360       .  A
N1152      C1160   1.354       .  A
C1153      C1161   1.390       .  A
C1153      C1169   1.415       .  A
C1154      C1170   1.406       .  A
C1154      C1162   1.383       .  A
C1155      C1163   1.385       .  A
C1155      C1172   1.437       .  A
C1156      C1171   1.439       .  A
C1156      C1164   1.392       .  A
C1157      C1169   1.400       .  A
C1157      C1165   1.384       .  A
C1158      C1172   1.405       .  A
C1158      C1166   1.386       .  A
C1159      C1167   1.377       .  A
C1159      C1170   1.412       .  A
C1160      C1168   1.396       .  A
C1160      C1171   1.430       .  A
C1161      C1162   1.379       .  A
C1161      H1173   1.081       .  S
C1162      H1174   1.082   1_556  S
C1163      C1164   1.395       .  A
C1163      H1175   1.082       .  S
C1164      H1176   1.081       .  S
C1165      C1166   1.368       .  A
C1165      H1177   1.083       .  S
C1166      H1178   1.079       .  S
C1167      C1168   1.353       .  A
C1167      H1179   1.080       .  S
C1168      H1180   1.077       .  S
C1169      C3122   1.478       .  S
C1170      C3077   1.502       .  S
C1172      C1265   1.509       .  S
N1183      C1188   1.343       .  A
N1183      C1187   1.345       .  A
N1183      H1215   1.040       .  S
N1184      C1191   1.344       .  A
N1184      C1192   1.346       .  A
N1185      C1190   1.365       .  A
N1185      C1189   1.371       .  A
N1185      H1216   1.041       .  S
N1186      C1193   1.350       .  A
N1186      C1194   1.341       .  A
C1187      C1195   1.387       .  A
C1187      C1203   1.409       .  A
C1188      C1204   1.411       .  A
C1188      C1196   1.388       .  A
C1189      C1197   1.389       .  A
C1189      C1206   1.463       .  A
C1190      C1205   1.465       .  A
C1190      C1198   1.393       .  A
C1191      C1203   1.412       .  A
C1191      C1199   1.392       .  A
C1192      C1206   1.399       .  A
C1192      C1200   1.380       .  A
C1193      C1201   1.380       .  A
C1193      C1204   1.393       .  A
C1194      C1202   1.383       .  A
C1194      C1205   1.390       .  A
C1195      C1196   1.384       .  A
C1195      H1207   1.081       .  S
C1196      H1208   1.082       .  S
C1197      C1198   1.419       .  A
C1197      H1209   1.082   1_655  S
C1198      H1210   1.082   1_655  S
C1199      C1200   1.372       .  A
C1199      H1211   1.078       .  S
C1200      H1212   1.082       .  S
C1201      C1202   1.370       .  A
C1201      H1213   1.077       .  S
C1202      H1214   1.080       .  S
C1203      C3109   1.493       .  S
C1204      C3173   1.467       .  S
N1217      C1222   1.346       .  A
N1217      C1221   1.341       .  A
N1217      H1249   1.043       .  S
N1218      C1225   1.351       .  A
N1218      C1226   1.356       .  A
N1219      C1224   1.380       .  A
N1219      C1223   1.375       .  A
N1219      H1250   1.042       .  S
N1220      C1227   1.345       .  A
N1220      C1228   1.338       .  A
C1221      C1229   1.383       .  A
C1221      C1237   1.389       .  A
C1222      C1238   1.407       .  A
C1222      C1230   1.389       .  A
C1223      C1231   1.393       .  A
C1223      C1240   1.479       .  A
C1224      C1239   1.475       .  A
C1224      C1232   1.391       .  A
C1225      C1237   1.403       .  A
C1225      C1233   1.376       .  A
C1226      C1240   1.430       .  A
C1226      C1234   1.399       .  A
C1227      C1235   1.375       .  A
C1227      C1238   1.400       .  A
C1228      C1236   1.393       .  A
C1228      C1239   1.403       .  A
C1229      C1230   1.370       .  A
C1229      H1241   1.083       .  S
C1230      H1242   1.076       .  S
C1231      C1232   1.416       .  A
C1231      H1243   1.082       .  S
C1232      H1244   1.082   1_565  S
C1233      C1234   1.361       .  A
C1233      H1245   1.082       .  S
C1234      H1246   1.076       .  S
C1235      C1236   1.373       .  A
C1235      H1247   1.074       .  S
C1236      H1248   1.083       .  S
C1237      C3189   1.465       .  S
C1238      C3061   1.484       .  S
O1251     Ni1257   2.015       .  S
O1251      C1272   1.304       .  A
O1252     Ni1275   1.977       .  S
O1252      C1261   1.306       .  A
O1253     Ni1257   1.828       .  S
O1253     Ni1275   1.879       .  S
O1253     Ni1269   1.878       .  S
O1253      H1276   0.967       .  S
C1254      O1271   1.311       .  A
C1254      O1263   1.288       .  A
C1254      C1874   1.487       .  S
O1255     Ni1274   1.920       .  S
O1255      C1261   1.277       .  A
O1256     Ni1274   1.935       .  S
O1256      C1258   1.275       .  A
Ni1257     O1260   1.923       .  S
Ni1257     O1262   1.927       .  S
C1258      O1268   1.285       .  A
C1258      C1679   1.585       .  S
O1259     Ni1275   1.994       .  S
O1259      C1265   1.317       .  A
O1260      C1265   1.300       .  A
O1262      C1264   1.295       .  A
O1263     Ni1274   1.919       .  S
C1264      O1270   1.292       .  A
H1266      O1267   0.967       .  S
O1267     Ni1275   1.882       .  S
O1267     Ni1269   1.859       .  S
O1267     Ni1274   1.841       .  S
O1268     Ni1269   2.030       .  S
Ni1269     O1273   1.930       .  S
Ni1269     O1271   1.969       .  S
O1270     Ni1275   2.031       .  S
C1272      O1273   1.298       .  A
C1272      C1417   1.553       .  S
O1277     Ni1283   1.943       .  S
O1277      C1298   1.287       .  A
O1278     Ni1301   1.979   1_545  S
O1278      C1287   1.309       .  A
O1279     Ni1283   1.873       .  S
O1279     Ni1301   1.896   1_455  S
O1279     Ni1295   1.904       .  S
O1279      H1302   0.967   1_455  S
C1280      O1297   1.327       .  A
C1280      O1289   1.295       .  A
C1280      C2087   1.528       .  S
O1281     Ni1300   1.950       .  S
O1281      C1287   1.285       .  A
O1282     Ni1300   2.002       .  S
O1282      C1284   1.288       .  A
Ni1283     O1286   1.969   1_455  S
Ni1283     O1288   1.947       .  S
C1284      O1294   1.285       .  A
C1284      C1975   1.617       .  S
O1285     Ni1301   1.968       .  S
O1285      C1291   1.306       .  A
O1286      C1291   1.302       .  A
C1287      C1486   1.516       .  S
O1288      C1290   1.277       .  A
O1289     Ni1300   1.956   1_455  S
C1290      O1296   1.290       .  A
C1290      C1714   1.588       .  S
H1292      O1293   0.967       .  S
O1293     Ni1301   1.889   1_445  S
O1293     Ni1295   1.887   1_545  S
O1293     Ni1300   1.879   1_455  S
O1294     Ni1295   2.031   1_645  S
Ni1295     O1299   1.993       .  S
Ni1295     O1297   2.019   1_565  S
O1296     Ni1301   2.037   1_455  S
C1298      O1299   1.317       .  A
C1303      C2981   1.500       .  S
C1303      N1304   1.356       .  A
C1303      N1308   1.361       .  A
N1304      C1305   1.358   1_545  A
C1305      C2962   1.460       .  S
C1305      N1306   1.343       .  A
N1306      C1307   1.347       .  A
C1307      C2994   1.466       .  S
C1307      N1308   1.354   1_565  A
C1309      C2914   1.468       .  S
C1309      N1310   1.366       .  A
C1309      N1314   1.357       .  A
N1310      C1311   1.358       .  A
C1311      C2930   1.476       .  S
C1311      N1312   1.350       .  A
N1312      C1313   1.345       .  A
C1313      C2946   1.451       .  S
C1313      N1314   1.354       .  A
C1315      C2869   1.480       .  S
C1315      N1316   1.357       .  A
C1315      N1320   1.358       .  A
N1316      C1317   1.345       .  A
C1317      C2882   1.480       .  S
C1317      N1318   1.353       .  A
N1318      C1319   1.351       .  A
C1319      C2898   1.468       .  S
C1319      N1320   1.360       .  A
N1321      C1326   1.354       .  A
N1321      C1325   1.341       .  A
N1321      H1353   1.043       .  S
N1322      C1329   1.355       .  A
N1322      C1330   1.362       .  A
N1323      C1328   1.386       .  A
N1323      C1327   1.382       .  A
N1323      H1354   1.043       .  S
N1324      C1331   1.338       .  A
N1324      C1332   1.328       .  A
C1325      C1333   1.384       .  A
C1325      C1341   1.392       .  A
C1326      C1342   1.418       .  A
C1326      C1334   1.389       .  A
C1327      C1335   1.392       .  A
C1327      C1344   1.482       .  A
C1328      C1343   1.482       .  A
C1328      C1336   1.389       .  A
C1329      C1341   1.418       .  A
C1329      C1337   1.383       .  A
C1330      C1344   1.430       .  A
C1330      C1338   1.388       .  A
C1331      C1339   1.381       .  A
C1331      C1342   1.397       .  A
C1332      C1340   1.397       .  A
C1332      C1343   1.395       .  A
C1333      C1334   1.370       .  A
C1333      H1345   1.083       .  S
C1334      H1346   1.076       .  S
C1335      C1336   1.414       .  A
C1335      H1347   1.082       .  S
C1336      H1348   1.082       .  S
C1337      C1338   1.373       .  A
C1337      H1349   1.082       .  S
C1338      H1350   1.075       .  S
C1339      C1340   1.379       .  A
C1339      H1351   1.083       .  S
C1340      H1352   1.083       .  S
C1341      C2885   1.474       .  S
C1342      C2917   1.480       .  S
N1355      C1360   1.345       .  A
N1355      C1359   1.335       .  A
N1355      H1387   1.042       .  S
N1356      C1363   1.353       .  A
N1356      C1364   1.354       .  A
N1357      C1362   1.374       .  A
N1357      C1361   1.367       .  A
N1357      H1388   1.038       .  S
N1358      C1365   1.338       .  A
N1358      C1366   1.330       .  A
C1359      C1367   1.389       .  A
C1359      C1375   1.397       .  A
C1360      C1376   1.405       .  A
C1360      C1368   1.386       .  A
C1361      C1369   1.394       .  A
C1361      C1378   1.471       .  A
C1362      C1377   1.475       .  A
C1362      C1370   1.394       .  A
C1363      C1375   1.408       .  A
C1363      C1371   1.381       .  A
C1364      C1378   1.426       .  A
C1364      C1372   1.389       .  A
C1365      C1373   1.377       .  A
C1365      C1376   1.386       .  A
C1366      C1374   1.388       .  A
C1366      C1377   1.383       .  A
C1367      C1368   1.387       .  A
C1367      H1379   1.082       .  S
C1368      H1380   1.082       .  S
C1369      C1370   1.424       .  A
C1369      H1381   1.082       .  S
C1370      H1382   1.081       .  S
C1371      C1372   1.368       .  A
C1371      H1383   1.082       .  S
C1372      H1384   1.077       .  S
C1373      C1374   1.380       .  A
C1373      H1385   1.081   1_545  S
C1374      H1386   1.081       .  S
C1375      C2866   1.466       .  S
C1376      C2965   1.472       .  S
C1389      C2850   1.437       .  S
C1389      N1390   1.335       .  A
C1389      N1394   1.343       .  A
N1390      C1391   1.347       .  A
C1391      C2837   1.485       .  S
C1391      N1392   1.360       .  A
N1392      C1393   1.367       .  A
C1393      C2821   1.490       .  S
C1393      N1394   1.347       .  A
N1395      C1400   1.348       .  A
N1395      C1399   1.345       .  A
N1395      H1427   1.044       .  S
N1396      C1403   1.351       .  A
N1396      C1404   1.346       .  A
N1397      C1402   1.372       .  A
N1397      C1401   1.363       .  A
N1397      H1428   1.042       .  S
N1398      C1405   1.340       .  A
N1398      C1406   1.340       .  A
C1399      C1407   1.389       .  A
C1399      C1415   1.406       .  A
C1400      C1416   1.402       .  A
C1400      C1408   1.385       .  A
C1401      C1409   1.390       .  A
C1401      C1418   1.457       .  A
C1402      C1417   1.461       .  A
C1402      C1410   1.390       .  A
C1403      C1415   1.394       .  A
C1403      C1411   1.376       .  A
C1404      C1418   1.413       .  A
C1404      C1412   1.389       .  A
C1405      C1413   1.373       .  A
C1405      C1416   1.389       .  A
C1406      C1414   1.393       .  A
C1406      C1417   1.415       .  A
C1407      C1408   1.379       .  A
C1407      H1419   1.082       .  S
C1408      H1420   1.082       .  S
C1409      C1410   1.413       .  A
C1409      H1421   1.080       .  S
C1410      H1422   1.082       .  S
C1411      C1412   1.370       .  A
C1411      H1423   1.081       .  S
C1412      H1424   1.079       .  S
C1413      C1414   1.377       .  A
C1413      H1425   1.074       .  S
C1414      H1426   1.082       .  S
C1415      C2901   1.481       .  S
C1416      C2818   1.485       .  S
N1429      C1434   1.340       .  A
N1429      C1433   1.346       .  A
N1429      H1461   1.042       .  S
N1430      C1437   1.343       .  A
N1430      C1438   1.336       .  A
N1431      C1436   1.360       .  A
N1431      C1435   1.366       .  A
N1431      H1462   1.041       .  S
N1432      C1439   1.354       .  A
N1432      C1440   1.358       .  A
C1433      C1441   1.385       .  A
C1433      C1449   1.402       .  A
C1434      C1450   1.401       .  A
C1434      C1442   1.388       .  A
C1435      C1443   1.387       .  A
C1435      C1452   1.444       .  A
C1436      C1451   1.450       .  A
C1436      C1444   1.393       .  A
C1437      C1449   1.392       .  A
C1437      C1445   1.380       .  A
C1438      C1452   1.394       .  A
C1438      C1446   1.385       .  A
C1439      C1447   1.381       .  A
C1439      C1450   1.418       .  A
C1440      C1448   1.384       .  A
C1440      C1451   1.422       .  A
C1441      C1442   1.386       .  A
C1441      H1453   1.082       .  S
C1442      H1454   1.082       .  S
C1443      C1444   1.406       .  A
C1443      H1455   1.082       .  S
C1444      H1456   1.081       .  S
C1445      C1446   1.363       .  A
C1445      H1457   1.083       .  S
C1446      H1458   1.076       .  S
C1447      C1448   1.371       .  A
C1447      H1459   1.081       .  S
C1448      H1460   1.075       .  S
C1449      C2997   1.473       .  S
C1450      C2933   1.481       .  S
N1463      C1468   1.342       .  A
N1463      C1467   1.341       .  A
N1463      H1495   1.037       .  S
N1464      C1471   1.355       .  A
N1464      C1472   1.350       .  A
N1465      C1470   1.371       .  A
N1465      C1469   1.362       .  A
N1465      H1496   1.040       .  S
N1466      C1473   1.344       .  A
N1466      C1474   1.343       .  A
C1467      C1475   1.386       .  A
C1467      C1483   1.398       .  A
C1468      C1484   1.401       .  A
C1468      C1476   1.386       .  A
C1469      C1477   1.391   1_655  A
C1469      C1486   1.453       .  A
C1470      C1485   1.454       .  A
C1470      C1478   1.389   1_655  A
C1471      C1483   1.411       .  A
C1471      C1479   1.387       .  A
C1472      C1486   1.409       .  A
C1472      C1480   1.389       .  A
C1473      C1481   1.385       .  A
C1473      C1484   1.398       .  A
C1474      C1482   1.387       .  A
C1474      C1485   1.399       .  A
C1475      C1476   1.378       .  A
C1475      H1487   1.082       .  S
C1476      H1488   1.080       .  S
C1477      C1478   1.411       .  A
C1477      H1489   1.082       .  S
C1478      H1490   1.082       .  S
C1479      C1480   1.353       .  A
C1479      H1491   1.081       .  S
C1480      H1492   1.083       .  S
C1481      C1482   1.362       .  A
C1481      H1493   1.083       .  S
C1482      H1494   1.079       .  S
C1483      C2949   1.474       .  S
C1484      C2853   1.464       .  S
C1485      C2000   1.534       .  S
N1497      C1502   1.340       .  A
N1497      C1501   1.348       .  A
N1497      H1529   1.044       .  S
N1498      C1505   1.341       .  A
N1498      C1506   1.338       .  A
N1499      C1504   1.373       .  A
N1499      C1503   1.378       .  A
N1499      H1530   1.041       .  S
N1500      C1507   1.354       .  A
N1500      C1508   1.355       .  A
C1501      C1509   1.386       .  A
C1501      C1517   1.400       .  A
C1502      C1518   1.395       .  A
C1502      C1510   1.387       .  A
C1503      C1511   1.393       .  A
C1503      C1520   1.477       .  A
C1504      C1519   1.472       .  A
C1504      C1512   1.391       .  A
C1505      C1517   1.390       .  A
C1505      C1513   1.377       .  A
C1506      C1520   1.406       .  A
C1506      C1514   1.393       .  A
C1507      C1515   1.382       .  A
C1507      C1518   1.408       .  A
C1508      C1516   1.392       .  A
C1508      C1519   1.422       .  A
C1509      C1510   1.376       .  A
C1509      H1521   1.082       .  S
C1510      H1522   1.082       .  S
C1511      C1512   1.415       .  A
C1511      H1523   1.081       .  S
C1512      H1524   1.082       .  S
C1513      C1514   1.378       .  A
C1513      H1525   1.080       .  S
C1514      H1526   1.083       .  S
C1515      C1516   1.361       .  A
C1515      H1527   1.083       .  S
C1516      H1528   1.079       .  S
C1517      C2978   1.481       .  S
C1518      C2834   1.468       .  S
C1531      C2805   1.473       .  S
C1531      N1532   1.363   1_455  A
C1531      N1536   1.356       .  A
N1532      C1533   1.368   1_655  A
C1533      C2786   1.498   1_455  S
C1533      N1534   1.349       .  A
N1534      C1535   1.355       .  A
C1535      C2773   1.486       .  S
C1535      N1536   1.352       .  A
N1537      C1542   1.343       .  A
N1537      C1541   1.351       .  A
N1537      H1569   1.043       .  S
N1538      C1545   1.346       .  A
N1538      C1546   1.336       .  A
N1539      C1544   1.378       .  A
N1539      C1543   1.381       .  A
N1539      H1570   1.043       .  S
N1540      C1547   1.357       .  A
N1540      C1548   1.359       .  A
C1541      C1549   1.385       .  A
C1541      C1557   1.412       .  A
C1542      C1558   1.395       .  A
C1542      C1550   1.384       .  A
C1543      C1551   1.391       .  A
C1543      C1560   1.478       .  A
C1544      C1559   1.479       .  A
C1544      C1552   1.393       .  A
C1545      C1557   1.404       .  A
C1545      C1553   1.379       .  A
C1546      C1560   1.399       .  A
C1546      C1554   1.392       .  A
C1547      C1555   1.373       .  A
C1547      C1558   1.403       .  A
C1548      C1556   1.396       .  A
C1548      C1559   1.440       .  A
C1549      C1550   1.363       .  A
C1549      H1561   1.070       .  S
C1550      H1562   1.082       .  S
C1551      C1552   1.418       .  A
C1551      H1563   1.081       .  S
C1552      H1564   1.082       .  S
C1553      C1554   1.378       .  A
C1553      H1565   1.079       .  S
C1554      H1566   1.083       .  S
C1555      C1556   1.365       .  A
C1555      H1567   1.083       .  S
C1556      H1568   1.074       .  S
C1557      C2754   1.494       .  S
C1558      C2770   1.475       .  S
C1571      C2706   1.474       .  S
C1571      N1572   1.347       .  A
C1571      N1576   1.367       .  A
N1572      C1573   1.343       .  A
C1573      C2725   1.450       .  S
C1573      N1574   1.347       .  A
N1574      C1575   1.354       .  A
C1575      C2738   1.466       .  S
C1575      N1576   1.366       .  A
C1577      C2690   1.495       .  S
C1577      N1578   1.347       .  A
C1577      N1582   1.363       .  A
N1578      C1579   1.337       .  A
C1579      C2674   1.434       .  S
C1579      N1580   1.347       .  A
N1580      C1581   1.347       .  A
C1581      C2757   1.472       .  S
C1581      N1582   1.372       .  A
N1583      C1588   1.347       .  A
N1583      C1587   1.336       .  A
N1583      H1615   1.030       .  S
N1584      C1591   1.351       .  A
N1584      C1592   1.353       .  A
N1585      C1590   1.384       .  A
N1585      C1589   1.385       .  A
N1585      H1616   1.041       .  S
N1586      C1593   1.342       .  A
N1586      C1594   1.334       .  A
C1587      C1595   1.388       .  A
C1587      C1603   1.397       .  A
C1588      C1604   1.402       .  A
C1588      C1596   1.385       .  A
C1589      C1597   1.390       .  A
C1589      C1606   1.480       .  A
C1590      C1605   1.486       .  A
C1590      C1598   1.391       .  A
C1591      C1603   1.421       .  A
C1591      C1599   1.390       .  A
C1592      C1606   1.413       .  A
C1592      C1600   1.385       .  A
C1593      C1601   1.375       .  A
C1593      C1604   1.399       .  A
C1594      C1602   1.399       .  A
C1594      C1605   1.413       .  A
C1595      C1596   1.369       .  A
C1595      H1607   1.082       .  S
C1596      H1608   1.081       .  S
C1597      C1598   1.414       .  A
C1597      H1609   1.082       .  S
C1598      H1610   1.082       .  S
C1599      C1600   1.364       .  A
C1599      H1611   1.082       .  S
C1600      H1612   1.082       .  S
C1601      C1602   1.373       .  A
C1601      H1613   1.080       .  S
C1602      H1614   1.081       .  S
C1603      C2677   1.458       .  S
C1604      C2709   1.490       .  S
C1617      C2658   1.448   1_655  S
C1617      N1618   1.360       .  A
C1617      N1622   1.358       .  A
N1618      C1619   1.352       .  A
C1619      C2645   1.471   1_655  S
C1619      N1620   1.345       .  A
N1620      C1621   1.359       .  A
C1621      C2626   1.471       .  S
C1621      N1622   1.352       .  A
N1623      C1628   1.348       .  A
N1623      C1627   1.343       .  A
N1623      H1655   1.036       .  S
N1624      C1631   1.360       .  A
N1624      C1632   1.357       .  A
N1625      C1630   1.380       .  A
N1625      C1629   1.373       .  A
N1625      H1656   1.038       .  S
N1626      C1633   1.347       .  A
N1626      C1634   1.344       .  A
C1627      C1635   1.388       .  A
C1627      C1643   1.407       .  A
C1628      C1644   1.408       .  A
C1628      C1636   1.386       .  A
C1629      C1637   1.391       .  A
C1629      C1646   1.470       .  A
C1630      C1645   1.471       .  A
C1630      C1638   1.389       .  A
C1631      C1643   1.416       .  A
C1631      C1639   1.379       .  A
C1632      C1646   1.428       .  A
C1632      C1640   1.389       .  A
C1633      C1641   1.385       .  A
C1633      C1644   1.405       .  A
C1634      C1642   1.389       .  A
C1634      C1645   1.404       .  A
C1635      C1636   1.383       .  A
C1635      H1647   1.082       .  S
C1636      H1648   1.082       .  S
C1637      C1638   1.411       .  A
C1637      H1649   1.082       .  S
C1638      H1650   1.082       .  S
C1639      C1640   1.349       .  A
C1639      H1651   1.081       .  S
C1640      H1652   1.075       .  S
C1641      C1642   1.371       .  A
C1641      H1653   1.082       .  S
C1642      H1654   1.081       .  S
C1643      C2642   1.487       .  S
C1644      C2693   1.476       .  S
C1646      C1990   1.547       .  S
N1657      C1662   1.334       .  A
N1657      C1661   1.339       .  A
N1657      H1689   1.045       .  S
N1658      C1665   1.354       .  A
N1658      C1666   1.350       .  A
N1659      C1664   1.386       .  A
N1659      C1663   1.377       .  A
N1659      H1690   1.040       .  S
N1660      C1667   1.348       .  A
N1660      C1668   1.344       .  A
C1661      C1669   1.389       .  A
C1661      C1677   1.400       .  A
C1662      C1678   1.391       .  A
C1662      C1670   1.387       .  A
C1663      C1671   1.392       .  A
C1663      C1680   1.481       .  A
C1664      C1679   1.485       .  A
C1664      C1672   1.393       .  A
C1665      C1677   1.410       .  A
C1665      C1673   1.394       .  A
C1666      C1680   1.403       .  A
C1666      C1674   1.378       .  A
C1667      C1675   1.384       .  A
C1667      C1678   1.407       .  A
C1668      C1676   1.391       .  A
C1668      C1679   1.419       .  A
C1669      C1670   1.381       .  A
C1669      H1681   1.081       .  S
C1670      H1682   1.083       .  S
C1671      C1672   1.419       .  A
C1671      H1683   1.082       .  S
C1672      H1684   1.082       .  S
C1673      C1674   1.378       .  A
C1673      H1685   1.082       .  S
C1674      H1686   1.082       .  S
C1675      C1676   1.370       .  A
C1675      H1687   1.082       .  S
C1676      H1688   1.083       .  S
C1677      C2789   1.517       .  S
C1678      C2629   1.492       .  S
N1691      C1696   1.354       .  A
N1691      C1695   1.343       .  A
N1691      H1723   1.038       .  S
N1692      C1699   1.362       .  A
N1692      C1700   1.358       .  A
N1693      C1698   1.381       .  A
N1693      C1697   1.379       .  A
N1693      H1724   1.038       .  S
N1694      C1701   1.337       .  A
N1694      C1702   1.341       .  A
C1695      C1703   1.389       .  A
C1695      C1711   1.415       .  A
C1696      C1712   1.418       .  A
C1696      C1704   1.385       .  A
C1697      C1705   1.394       .  A
C1697      C1714   1.486       .  A
C1698      C1713   1.487       .  A
C1698      C1706   1.394       .  A
C1699      C1711   1.418       .  A
C1699      C1707   1.380       .  A
C1700      C1714   1.430       .  A
C1700      C1708   1.380       .  A
C1701      C1709   1.389       .  A
C1701      C1712   1.391       .  A
C1702      C1710   1.377       .  A
C1702      C1713   1.390       .  A
C1703      C1704   1.385       .  A
C1703      H1715   1.082       .  S
C1704      H1716   1.082       .  S
C1705      C1706   1.423       .  A
C1705      H1717   1.082       .  S
C1706      H1718   1.082       .  S
C1707      C1708   1.368       .  A
C1707      H1719   1.083   1_455  S
C1708      H1720   1.065       .  S
C1709      C1710   1.376       .  A
C1709      H1721   1.083       .  S
C1710      H1722   1.077       .  S
C1711      C2802   1.502       .  S
C1712      C2741   1.497       .  S
N1725      C1730   1.342       .  A
N1725      C1729   1.348       .  A
N1725      H1757   1.043       .  S
N1726      C1733   1.334       .  A
N1726      C1734   1.328       .  A
N1727      C1732   1.366       .  A
N1727      C1731   1.375       .  A
N1727      H1758   1.042       .  S
N1728      C1735   1.352       .  A
N1728      C1736   1.354       .  A
C1729      C1737   1.384       .  A
C1729      C1745   1.406       .  A
C1730      C1746   1.407       .  A
C1730      C1738   1.389       .  A
C1731      C1739   1.390   1_556  A
C1731      C1748   1.463       .  A
C1732      C1747   1.455       .  A
C1732      C1740   1.389   1_556  A
C1733      C1745   1.395       .  A
C1733      C1741   1.385       .  A
C1734      C1748   1.390       .  A
C1734      C1742   1.390       .  A
C1735      C1743   1.380       .  A
C1735      C1746   1.408       .  A
C1736      C1744   1.394       .  A
C1736      C1747   1.424       .  A
C1737      C1738   1.372       .  A
C1737      H1749   1.082       .  S
C1738      H1750   1.075       .  S
C1739      C1740   1.409       .  A
C1739      H1751   1.082       .  S
C1740      H1752   1.082       .  S
C1741      C1742   1.383       .  A
C1741      H1753   1.083       .  S
C1742      H1754   1.083       .  S
C1743      C1744   1.365       .  A
C1743      H1755   1.082       .  S
C1744      H1756   1.079       .  S
C1745      C2722   1.464       .  S
C1746      C2661   1.488       .  S
C1759      C2594   1.456       .  S
C1759      N1760   1.361       .  A
C1759      N1764   1.358       .  A
N1760      C1761   1.349       .  A
C1761      C2610   1.470       .  S
C1761      N1762   1.347       .  A
N1762      C1763   1.347       .  A
C1763      C2581   1.456       .  S
C1763      N1764   1.357       .  A
N1765      C1770   1.350       .  A
N1765      C1769   1.333       .  A
N1765      H1797   1.045       .  S
N1766      C1773   1.357       .  A
N1766      C1774   1.362       .  A
N1767      C1772   1.383       .  A
N1767      C1771   1.374       .  A
N1767      H1798   1.043       .  S
N1768      C1775   1.334       .  A
N1768      C1776   1.319       .  A
C1769      C1777   1.393       .  A
C1769      C1785   1.398       .  A
C1770      C1786   1.404       .  A
C1770      C1778   1.382       .  A
C1771      C1779   1.393       .  A
C1771      C1788   1.476       .  A
C1772      C1787   1.477       .  A
C1772      C1780   1.391       .  A
C1773      C1785   1.421       .  A
C1773      C1781   1.381       .  A
C1774      C1788   1.439       .  A
C1774      C1782   1.393       .  A
C1775      C1783   1.374       .  A
C1775      C1786   1.387       .  A
C1776      C1784   1.393       .  A
C1776      C1787   1.386       .  A
C1777      C1778   1.381       .  A
C1777      H1789   1.082       .  S
C1778      H1790   1.082       .  S
C1779      C1780   1.418       .  A
C1779      H1791   1.082       .  S
C1780      H1792   1.082       .  S
C1781      C1782   1.380       .  A
C1781      H1793   1.082       .  S
C1782      H1794   1.079       .  S
C1783      C1784   1.382       .  A
C1783      H1795   1.078       .  S
C1784      H1796   1.080       .  S
C1785      C2562   1.478       .  S
C1786      C2597   1.472       .  S
C1799      C2549   1.440       .  S
C1799      N1800   1.351       .  A
C1799      N1804   1.351       .  A
N1800      C1801   1.351       .  A
C1801      C2533   1.457       .  S
C1801      N1802   1.346       .  A
N1802      C1803   1.354       .  A
C1803      C2565   1.466       .  S
C1803      N1804   1.350       .  A
C1805      C2498   1.464       .  S
C1805      N1806   1.344       .  A
C1805      N1810   1.353       .  A
N1806      C1807   1.344       .  A
C1807      C2482   1.474       .  S
C1807      N1808   1.361       .  A
N1808      C1809   1.365   1_655  A
C1809      C2514   1.472       .  S
C1809      N1810   1.361   1_455  A
C1811      C2453   1.476       .  S
C1811      N1812   1.350   1_655  A
C1811      N1816   1.352       .  A
N1812      C1813   1.362       .  A
C1813      C2469   1.481       .  S
C1813      N1814   1.352   1_455  A
N1814      C1815   1.352       .  A
C1815      C2434   1.447       .  S
C1815      N1816   1.344       .  A
N1817      C1822   1.342       .  A
N1817      C1821   1.342       .  A
N1817      H1849   1.044       .  S
N1818      C1825   1.357       .  A
N1818      C1826   1.349       .  A
N1819      C1824   1.379       .  A
N1819      C1823   1.368       .  A
N1819      H1850   1.038       .  S
N1820      C1827   1.343       .  A
N1820      C1828   1.343       .  A
C1821      C1829   1.386       .  A
C1821      C1837   1.397       .  A
C1822      C1838   1.399       .  A
C1822      C1830   1.388       .  A
C1823      C1831   1.392       .  A
C1823      C1840   1.468       .  A
C1824      C1839   1.474       .  A
C1824      C1832   1.391       .  A
C1825      C1837   1.402       .  A
C1825      C1833   1.376       .  A
C1826      C1840   1.417       .  A
C1826      C1834   1.387       .  A
C1827      C1835   1.374       .  A
C1827      C1838   1.387       .  A
C1828      C1836   1.380       .  A
C1828      C1839   1.406       .  A
C1829      C1830   1.382       .  A
C1829      H1841   1.082       .  S
C1830      H1842   1.082       .  S
C1831      C1832   1.415       .  A
C1831      H1843   1.082       .  S
C1832      H1844   1.082       .  S
C1833      C1834   1.365       .  A
C1833      H1845   1.083       .  S
C1834      H1846   1.066       .  S
C1835      C1836   1.368       .  A
C1835      H1847   1.080       .  S
C1836      H1848   1.071       .  S
C1837      C2517   1.483       .  S
C1838      C2466   1.469       .  S
N1851      C1856   1.343       .  A
N1851      C1855   1.337       .  A
N1851      H1883   1.042       .  S
N1852      C1859   1.342       .  A
N1852      C1860   1.336       .  A
N1853      C1858   1.357       .  A
N1853      C1857   1.359       .  A
N1853      H1884   1.040       .  S
N1854      C1861   1.352       .  A
N1854      C1862   1.345       .  A
C1855      C1863   1.385       .  A
C1855      C1871   1.395       .  A
C1856      C1872   1.401       .  A
C1856      C1864   1.388       .  A
C1857      C1865   1.392       .  A
C1857      C1874   1.438       .  A
C1858      C1873   1.425       .  A
C1858      C1866   1.384       .  A
C1859      C1871   1.397       .  A
C1859      C1867   1.385       .  A
C1860      C1874   1.400       .  A
C1860      C1868   1.389       .  A
C1861      C1869   1.386       .  A
C1861      C1872   1.411       .  A
C1862      C1870   1.388       .  A
C1862      C1873   1.403       .  A
C1863      C1864   1.382       .  A
C1863      H1875   1.082       .  S
C1864      H1876   1.082       .  S
C1865      C1866   1.394       .  A
C1865      H1877   1.082       .  S
C1866      H1878   1.082       .  S
C1867      C1868   1.378       .  A
C1867      H1879   1.082       .  S
C1868      H1880   1.082       .  S
C1869      C1870   1.369       .  A
C1869      H1881   1.080       .  S
C1870      H1882   1.081       .  S
C1871      C2530   1.460       .  S
C1872      C2437   1.487       .  S
C1873      C2008   1.482       .  S
N1885      C1890   1.338       .  A
N1885      C1889   1.342       .  A
N1885      H1917   1.042       .  S
N1886      C1893   1.346       .  A
N1886      C1894   1.346       .  A
N1887      C1892   1.372       .  A
N1887      C1891   1.376       .  A
N1887      H1918   1.042       .  S
N1888      C1895   1.354       .  A
N1888      C1896   1.351       .  A
C1889      C1897   1.385       .  A
C1889      C1905   1.398       .  A
C1890      C1906   1.399       .  A
C1890      C1898   1.388       .  A
C1891      C1899   1.392       .  A
C1891      C1908   1.472       .  A
C1892      C1907   1.467       .  A
C1892      C1900   1.391       .  A
C1893      C1905   1.397       .  A
C1893      C1901   1.375       .  A
C1894      C1908   1.404       .  A
C1894      C1902   1.387       .  A
C1895      C1903   1.385       .  A
C1895      C1906   1.413       .  A
C1896      C1904   1.389       .  A
C1896      C1907   1.413       .  A
C1897      C1898   1.388       .  A
C1897      H1909   1.082       .  S
C1898      H1910   1.082       .  S
C1899      C1900   1.415       .  A
C1899      H1911   1.082   1_554  S
C1900      H1912   1.082   1_554  S
C1901      C1902   1.364       .  A
C1901      H1913   1.077       .  S
C1902      H1914   1.080       .  S
C1903      C1904   1.369       .  A
C1903      H1915   1.082       .  S
C1904      H1916   1.083       .  S
C1905      C2501   1.475       .  S
C1906      C2613   1.476       .  S
N1919      C1924   1.341       .  A
N1919      C1923   1.350       .  A
N1919      H1951   1.032       .  S
N1920      C1927   1.336       .  A
N1920      C1928   1.333       .  A
N1921      C1926   1.369       .  A
N1921      C1925   1.366       .  A
N1921      H1952   1.029       .  S
N1922      C1929   1.347       .  A
N1922      C1930   1.350       .  A
C1923      C1931   1.383       .  A
C1923      C1939   1.403       .  A
C1924      C1940   1.414       .  A
C1924      C1932   1.391       .  A
C1925      C1933   1.388       .  A
C1925      C1942   1.463       .  A
C1926      C1941   1.474       .  A
C1926      C1934   1.395       .  A
C1927      C1939   1.408       .  A
C1927      C1935   1.385       .  A
C1928      C1942   1.412       .  A
C1928      C1936   1.387       .  A
C1929      C1937   1.389       .  A
C1929      C1940   1.415       .  A
C1930      C1938   1.386       .  A
C1930      C1941   1.419       .  A
C1931      C1932   1.378       .  A
C1931      H1943   1.081       .  S
C1932      H1944   1.082       .  S
C1933      C1934   1.415       .  A
C1933      H1945   1.082       .  S
C1934      H1946   1.081       .  S
C1935      C1936   1.384       .  A
C1935      H1947   1.077       .  S
C1936      H1948   1.080       .  S
C1937      C1938   1.356       .  A
C1937      H1949   1.079       .  S
C1938      H1950   1.080       .  S
C1939      C2485   1.494       .  S
C1940      C2546   1.468       .  S
N1953      C1958   1.333       .  A
N1953      C1957   1.353       .  A
N1953      H1985   1.040       .  S
N1954      C1961   1.332       .  A
N1954      C1962   1.338       .  A
N1955      C1960   1.389       .  A
N1955      C1959   1.393       .  A
N1955      H1986   1.036       .  S
N1956      C1963   1.363       .  A
N1956      C1964   1.369       .  A
C1957      C1965   1.379       .  A
C1957      C1973   1.394       .  A
C1958      C1974   1.399       .  A
C1958      C1966   1.393       .  A
C1959      C1967   1.394   1_545  A
C1959      C1976   1.506       .  A
C1960      C1975   1.509       .  A
C1960      C1968   1.397   1_545  A
C1961      C1973   1.391       .  A
C1961      C1969   1.385       .  A
C1962      C1976   1.389       .  A
C1962      C1970   1.381       .  A
C1963      C1971   1.373       .  A
C1963      C1974   1.427       .  A
C1964      C1972   1.387       .  A
C1964      C1975   1.447       .  A
C1965      C1966   1.373       .  A
C1965      H1977   1.082       .  S
C1966      H1978   1.082       .  S
C1967      C1968   1.426       .  A
C1967      H1979   1.082       .  S
C1968      H1980   1.082       .  S
C1969      C1970   1.380       .  A
C1969      H1981   1.077       .  S
C1970      H1982   1.081   1_545  S
C1971      C1972   1.355       .  A
C1971      H1983   1.078       .  S
C1972      H1984   1.070       .  S
C1973      C2578   1.488       .  S
C1974      C2450   1.471       .  S
O1987     Ni1993   1.949       .  S
O1987      C2008   1.291       .  A
O1988     Ni2011   1.987   1_455  S
O1988      C1997   1.316       .  A
O1989     Ni1993   1.793       .  S
O1989     Ni2011   1.872       .  S
O1989     Ni2005   1.888       .  S
O1989      H2012   0.967       .  S
C1990      O2007   1.309       .  A
C1990      O1999   1.299       .  A
O1991     Ni2010   1.914       .  S
O1991      C1997   1.285       .  A
O1992     Ni2010   1.963       .  S
O1992      C1994   1.278       .  A
Ni1993     O1996   1.915       .  S
Ni1993     O1998   1.897       .  S
C1994      O2004   1.274   1_455  A
O1995     Ni2011   2.049       .  S
O1995      C2001   1.333       .  A
O1996      C2001   1.292       .  A
C1997      C2162   1.476       .  S
O1998      C2000   1.272       .  A
O1999     Ni2010   1.992       .  S
C2000      O2006   1.293       .  A
H2002      O2003   0.967       .  S
O2003     Ni2011   1.881   1_455  S
O2003     Ni2005   1.833   1_455  S
O2003     Ni2010   1.849       .  S
O2004     Ni2005   1.969       .  S
Ni2005     O2009   1.925       .  S
Ni2005     O2007   1.975   1_655  S
O2006     Ni2011   2.031       .  S
C2008      O2009   1.288       .  A
C2013      C2402   1.467   1_655  S
C2013      N2014   1.354       .  A
C2013      N2018   1.354   1_556  A
N2014      C2015   1.354   1_556  A
C2015      C2418   1.469       .  S
C2015      N2016   1.352       .  A
N2016      C2017   1.355       .  A
C2017      C2386   1.482       .  S
C2017      N2018   1.356       .  A
N2019      C2024   1.350       .  A
N2019      C2023   1.345       .  A
N2019      H2051   1.036       .  S
N2020      C2027   1.356       .  A
N2020      C2028   1.353       .  A
N2021      C2026   1.372       .  A
N2021      C2025   1.368       .  A
N2021      H2052   1.036       .  S
N2022      C2029   1.347       .  A
N2022      C2030   1.339       .  A
C2023      C2031   1.387       .  A
C2023      C2039   1.406       .  A
C2024      C2040   1.409       .  A
C2024      C2032   1.387       .  A
C2025      C2033   1.392       .  A
C2025      C2042   1.463       .  A
C2026      C2041   1.462       .  A
C2026      C2034   1.388       .  A
C2027      C2039   1.411       .  A
C2027      C2035   1.381       .  A
C2028      C2042   1.429       .  A
C2028      C2036   1.397       .  A
C2029      C2037   1.384       .  A
C2029      C2040   1.409       .  A
C2030      C2038   1.386       .  A
C2030      C2041   1.406       .  A
C2031      C2032   1.377       .  A
C2031      H2043   1.082       .  S
C2032      H2044   1.081       .  S
C2033      C2034   1.409       .  A
C2033      H2045   1.082       .  S
C2034      H2046   1.082       .  S
C2035      C2036   1.353       .  A
C2035      H2047   1.082       .  S
C2036      H2048   1.081       .  S
C2037      C2038   1.380       .  A
C2037      H2049   1.082       .  S
C2038      H2050   1.079       .  S
C2039      C2373   1.477       .  S
C2040      C2389   1.481       .  S
C2053      C2322   1.457   1_665  S
C2053      N2054   1.351       .  A
C2053      N2058   1.344   1_655  A
N2054      C2055   1.357       .  A
C2055      C2338   1.477       .  S
C2055      N2056   1.360   1_655  A
N2056      C2057   1.360       .  A
C2057      C2354   1.457       .  S
C2057      N2058   1.343       .  A
C2059      C2290   1.472       .  S
C2059      N2060   1.358       .  A
C2059      N2064   1.360       .  A
N2060      C2061   1.343       .  A
C2061      C2370   1.472       .  S
C2061      N2062   1.349       .  A
N2062      C2063   1.357       .  A
C2063      C2306   1.488       .  S
C2063      N2064   1.364       .  A
N2065      C2070   1.349       .  A
N2065      C2069   1.341       .  A
N2065      H2097   1.039       .  S
N2066      C2073   1.355       .  A
N2066      C2074   1.359       .  A
N2067      C2072   1.366       .  A
N2067      C2071   1.361       .  A
N2067      H2098   1.034       .  S
N2068      C2075   1.340       .  A
N2068      C2076   1.334       .  A
C2069      C2077   1.390       .  A
C2069      C2085   1.407       .  A
C2070      C2086   1.408       .  A
C2070      C2078   1.385       .  A
C2071      C2079   1.394       .  A
C2071      C2088   1.462       .  A
C2072      C2087   1.459       .  A
C2072      C2080   1.389       .  A
C2073      C2085   1.423       .  A
C2073      C2081   1.386       .  A
C2074      C2088   1.433       .  A
C2074      C2082   1.391       .  A
C2075      C2083   1.380       .  A
C2075      C2086   1.371       .  A
C2076      C2084   1.389       .  A
C2076      C2087   1.386       .  A
C2077      C2078   1.389       .  A
C2077      H2089   1.082       .  S
C2078      H2090   1.082       .  S
C2079      C2080   1.417       .  A
C2079      H2091   1.082       .  S
C2080      H2092   1.082       .  S
C2081      C2082   1.368       .  A
C2081      H2093   1.082       .  S
C2082      H2094   1.082       .  S
C2083      C2084   1.369       .  A
C2083      H2095   1.081       .  S
C2084      H2096   1.082       .  S
C2085      C2293   1.489       .  S
C2086      C2325   1.459       .  S
C2099      C2258   1.474   1_545  S
C2099      N2100   1.357       .  A
C2099      N2104   1.348       .  A
N2100      C2101   1.356       .  A
C2101      C2242   1.486       .  S
C2101      N2102   1.350       .  A
N2102      C2103   1.357       .  A
C2103      C2274   1.451       .  S
C2103      N2104   1.346       .  A
N2105      C2110   1.344       .  A
N2105      C2109   1.351       .  A
N2105      H2137   1.038       .  S
N2106      C2113   1.339       .  A
N2106      C2114   1.339       .  A
N2107      C2112   1.373       .  A
N2107      C2111   1.379       .  A
N2107      H2138   1.036       .  S
N2108      C2115   1.356       .  A
N2108      C2116   1.355       .  A
C2109      C2117   1.385       .  A
C2109      C2125   1.405       .  A
C2110      C2126   1.407       .  A
C2110      C2118   1.389       .  A
C2111      C2119   1.390       .  A
C2111      C2128   1.476       .  A
C2112      C2127   1.477       .  A
C2112      C2120   1.394       .  A
C2113      C2125   1.394       .  A
C2113      C2121   1.383       .  A
C2114      C2128   1.389       .  A
C2114      C2122   1.384       .  A
C2115      C2123   1.376       .  A
C2115      C2126   1.408       .  A
C2116      C2124   1.393       .  A
C2116      C2127   1.436       .  A
C2117      C2118   1.374       .  A
C2117      H2129   1.082       .  S
C2118      H2130   1.082       .  S
C2119      C2120   1.417       .  A
C2119      H2131   1.082       .  S
C2120      H2132   1.082       .  S
C2121      C2122   1.375       .  A
C2121      H2133   1.076       .  S
C2122      H2134   1.082       .  S
C2123      C2124   1.367       .  A
C2123      H2135   1.082   1_554  S
C2124      H2136   1.074   1_554  S
C2125      C2309   1.480       .  S
C2126      C2245   1.481       .  S
N2139      C2144   1.339       .  A
N2139      C2143   1.349       .  A
N2139      H2171   1.044       .  S
N2140      C2147   1.337       .  A
N2140      C2148   1.326       .  A
N2141      C2146   1.350       .  A
N2141      C2145   1.357       .  A
N2141      H2172   1.042       .  S
N2142      C2149   1.355       .  A
N2142      C2150   1.357       .  A
C2143      C2151   1.385       .  A
C2143      C2159   1.408       .  A
C2144      C2160   1.399       .  A
C2144      C2152   1.389       .  A
C2145      C2153   1.387       .  A
C2145      C2162   1.423       .  A
C2146      C2161   1.420       .  A
C2146      C2154   1.386       .  A
C2147      C2159   1.393       .  A
C2147      C2155   1.383       .  A
C2148      C2162   1.393       .  A
C2148      C2156   1.393       .  A
C2149      C2157   1.386       .  A
C2149      C2160   1.420       .  A
C2150      C2158   1.385       .  A
C2150      C2161   1.423       .  A
C2151      C2152   1.381       .  A
C2151      H2163   1.082       .  S
C2152      H2164   1.082       .  S
C2153      C2154   1.397       .  A
C2153      H2165   1.082       .  S
C2154      H2166   1.082       .  S
C2155      C2156   1.377       .  A
C2155      H2167   1.082       .  S
C2156      H2168   1.082       .  S
C2157      C2158   1.375       .  A
C2157      H2169   1.081       .  S
C2158      H2170   1.078       .  S
C2159      C2405   1.469       .  S
C2160      C2277   1.487       .  S
N2173      C2178   1.344       .  A
N2173      C2177   1.351       .  A
N2173      H2205   1.045       .  S
N2174      C2181   1.343       .  A
N2174      C2182   1.337       .  A
N2175      C2180   1.352       .  A
N2175      C2179   1.356       .  A
N2175      H2206   1.043       .  S
N2176      C2183   1.368       .  A
N2176      C2184   1.364       .  A
C2177      C2185   1.390       .  A
C2177      C2193   1.406       .  A
C2178      C2194   1.387       .  A
C2178      C2186   1.374       .  A
C2179      C2187   1.389       .  A
C2179      C2196   1.415       .  A
C2180      C2195   1.407       .  A
C2180      C2188   1.385       .  A
C2181      C2193   1.397       .  A
C2181      C2189   1.384       .  A
C2182      C2196   1.397       .  A
C2182      C2190   1.387       .  A
C2183      C2191   1.387       .  A
C2183      C2194   1.448       .  A
C2184      C2192   1.393       .  A
C2184      C2195   1.456       .  A
C2185      C2186   1.354       .  A
C2185      H2197   1.079       .  S
C2186      H2198   1.073       .  S
C2187      C2188   1.364       .  A
C2187      H2199   1.082       .  S
C2188      H2200   1.083       .  S
C2189      C2190   1.374       .  A
C2189      H2201   1.083       .  S
C2190      H2202   1.082       .  S
C2191      C2192   1.408       .  A
C2191      H2203   1.082       .  S
C2192      H2204   1.082       .  S
C2193      C2357   1.482       .  S
C2196      C2261   1.476       .  S
N2207      C2212   1.346       .  A
N2207      C2211   1.347       .  A
N2207      H2239   1.045       .  S
N2208      C2215   1.334       .  A
N2208      C2216   1.335       .  A
N2209      C2214   1.354       .  A
N2209      C2213   1.353       .  A
N2209      H2240   1.039       .  S
N2210      C2217   1.376       .  A
N2210      C2218   1.370       .  A
C2211      C2219   1.386       .  A
C2211      C2227   1.406       .  A
C2212      C2228   1.394       .  A
C2212      C2220   1.378       .  A
C2213      C2221   1.385       .  A
C2213      C2230   1.416       .  A
C2214      C2229   1.408       .  A
C2214      C2222   1.384       .  A
C2215      C2227   1.410       .  A
C2215      C2223   1.388       .  A
C2216      C2230   1.415       .  A
C2216      C2224   1.389       .  A
C2217      C2225   1.393       .  A
C2217      C2228   1.483       .  A
C2218      C2226   1.395       .  A
C2218      C2229   1.483       .  A
C2219      C2220   1.369       .  A
C2219      H2231   1.080       .  S
C2220      H2232   1.081       .  S
C2221      C2222   1.370       .  A
C2221      H2233   1.078       .  S
C2222      H2234   1.082       .  S
C2223      C2224   1.398       .  A
C2223      H2235   1.082       .  S
C2224      H2236   1.082       .  S
C2225      C2226   1.425       .  A
C2225      H2237   1.082       .  S
C2226      H2238   1.082       .  S
C2227      C2421   1.474       .  S
C2230      C2341   1.479       .  S
C2241      C2242   1.404       .  A
C2241      C2246   1.396       .  A
C2241      H2248   1.082       .  S
C2242      C2243   1.428       .  A
C2243      C2244   1.410       .  A
C2243      C2250   1.521   1_554  S
C2244      C2245   1.399       .  A
C2244      H2249   1.083   1_554  S
C2245      C2246   1.416       .  A
C2246      C2247   1.524       .  S
C2247      F2251   1.385       .  S
C2247      F2252   1.381       .  S
C2247      F2253   1.381       .  S
C2250      F2254   1.385       .  S
C2250      F2255   1.380       .  S
C2250      F2256   1.383       .  S
C2257      C2258   1.405       .  A
C2257      C2262   1.391       .  A
C2257      H2264   1.084       .  S
C2258      C2259   1.425       .  A
C2259      C2260   1.397       .  A
C2259      C2266   1.523       .  S
C2260      C2261   1.400       .  A
C2260      H2265   1.084       .  S
C2261      C2262   1.408       .  A
C2262      C2263   1.506       .  S
C2263      F2267   1.384       .  S
C2263      F2268   1.370       .  S
C2263      F2269   1.383       .  S
C2266      F2270   1.384       .  S
C2266      F2271   1.383   1_565  S
C2266      F2272   1.385       .  S
C2273      C2274   1.401   1_556  A
C2273      C2278   1.402       .  A
C2273      H2280   1.085       .  S
C2274      C2275   1.401       .  A
C2275      C2276   1.386   1_554  A
C2275      C2282   1.518       .  S
C2276      C2277   1.414       .  A
C2276      H2281   1.083       .  S
C2277      C2278   1.417       .  A
C2278      C2279   1.514       .  S
C2279      F2283   1.382   1_545  S
C2279      F2284   1.382       .  S
C2279      F2285   1.383   1_545  S
C2282      F2286   1.381       .  S
C2282      F2287   1.385       .  S
C2282      F2288   1.383       .  S
C2289      C2290   1.397       .  A
C2289      C2294   1.393       .  A
C2289      H2296   1.084       .  S
C2290      C2291   1.412       .  A
C2291      C2292   1.409       .  A
C2291      C2298   1.514       .  S
C2292      C2293   1.410       .  A
C2292      H2297   1.083       .  S
C2293      C2294   1.427       .  A
C2294      C2295   1.529       .  S
C2295      F2299   1.386       .  S
C2295      F2300   1.382       .  S
C2295      F2301   1.378       .  S
C2298      F2302   1.383       .  S
C2298      F2303   1.379       .  S
C2298      F2304   1.385       .  S
C2305      C2306   1.414       .  A
C2305      C2310   1.401       .  A
C2305      H2312   1.083       .  S
C2306      C2307   1.423       .  A
C2307      C2308   1.403       .  A
C2307      C2314   1.518       .  S
C2308      C2309   1.404       .  A
C2308      H2313   1.083       .  S
C2309      C2310   1.398       .  A
C2310      C2311   1.511       .  S
C2311      F2315   1.382       .  S
C2311      F2316   1.381       .  S
C2311      F2317   1.381       .  S
C2314      F2318   1.383       .  S
C2314      F2319   1.381       .  S
C2314      F2320   1.385       .  S
C2321      C2322   1.402       .  A
C2321      C2326   1.398       .  A
C2321      H2328   1.085   1_455  S
C2322      C2323   1.410       .  A
C2323      C2324   1.395       .  A
C2323      C2330   1.513   1_545  S
C2324      C2325   1.403       .  A
C2324      H2329   1.084       .  S
C2325      C2326   1.416       .  A
C2326      C2327   1.521       .  S
C2327      F2331   1.384       .  S
C2327      F2332   1.380       .  S
C2327      F2333   1.382       .  S
C2330      F2334   1.383       .  S
C2330      F2335   1.383   1_455  S
C2330      F2336   1.382   1_455  S
C2337      C2338   1.400   1_545  A
C2337      C2342   1.397       .  A
C2337      H2344   1.085       .  S
C2338      C2339   1.413       .  A
C2339      C2340   1.411       .  A
C2339      C2346   1.514       .  S
C2340      C2341   1.405   1_565  A
C2340      H2345   1.084       .  S
C2341      C2342   1.419       .  A
C2342      C2343   1.517       .  S
C2343      F2347   1.383       .  S
C2343      F2348   1.381       .  S
C2343      F2349   1.381       .  S
C2346      F2350   1.383       .  S
C2346      F2351   1.382   1_655  S
C2346      F2352   1.378       .  S
C2353      C2354   1.399       .  A
C2353      C2358   1.394       .  A
C2353      H2360   1.085       .  S
C2354      C2355   1.413       .  A
C2355      C2356   1.400       .  A
C2355      C2362   1.518       .  S
C2356      C2357   1.408       .  A
C2356      H2361   1.083       .  S
C2357      C2358   1.415       .  A
C2358      C2359   1.508       .  S
C2359      F2363   1.383       .  S
C2359      F2364   1.383       .  S
C2359      F2365   1.382       .  S
C2362      F2366   1.384   1_565  S
C2362      F2367   1.382       .  S
C2362      F2368   1.385       .  S
C2369      C2370   1.403       .  A
C2369      C2374   1.397       .  A
C2369      H2376   1.083       .  S
C2370      C2371   1.417       .  A
C2371      C2372   1.405       .  A
C2371      C2378   1.518       .  S
C2372      C2373   1.401       .  A
C2372      H2377   1.083       .  S
C2373      C2374   1.415       .  A
C2374      C2375   1.523       .  S
C2375      F2379   1.382       .  S
C2375      F2380   1.385       .  S
C2375      F2381   1.382       .  S
C2378      F2382   1.384       .  S
C2378      F2383   1.382       .  S
C2378      F2384   1.385       .  S
C2385      C2386   1.413       .  A
C2385      C2390   1.401       .  A
C2385      H2392   1.083       .  S
C2386      C2387   1.418   1_655  A
C2387      C2388   1.394       .  A
C2387      C2394   1.521       .  S
C2388      C2389   1.403       .  A
C2388      H2393   1.083       .  S
C2389      C2390   1.414   1_455  A
C2390      C2391   1.519       .  S
C2391      F2395   1.383       .  S
C2391      F2396   1.380       .  S
C2391      F2397   1.383       .  S
C2394      F2398   1.384       .  S
C2394      F2399   1.382       .  S
C2394      F2400   1.386       .  S
C2401      C2402   1.407       .  A
C2401      C2406   1.403       .  A
C2401      H2408   1.083       .  S
C2402      C2403   1.415       .  A
C2403      C2404   1.397       .  A
C2403      C2410   1.515   1_455  S
C2404      C2405   1.399       .  A
C2404      H2409   1.085       .  S
C2405      C2406   1.408       .  A
C2406      C2407   1.517       .  S
C2407      F2411   1.384       .  S
C2407      F2412   1.384       .  S
C2407      F2413   1.383       .  S
C2410      F2414   1.382       .  S
C2410      F2415   1.381       .  S
C2410      F2416   1.383       .  S
C2417      C2418   1.405       .  A
C2417      C2422   1.403       .  A
C2417      H2424   1.083       .  S
C2418      C2419   1.409   1_554  A
C2419      C2420   1.397   1_556  A
C2419      C2426   1.511       .  S
C2420      C2421   1.401       .  A
C2420      H2425   1.086   1_554  S
C2421      C2422   1.421       .  A
C2422      C2423   1.522       .  S
C2423      F2427   1.386       .  S
C2423      F2428   1.375       .  S
C2423      F2429   1.382       .  S
C2426      F2430   1.381       .  S
C2426      F2431   1.382       .  S
C2426      F2432   1.379       .  S
C2433      C2434   1.399       .  A
C2433      C2438   1.402       .  A
C2433      H2440   1.084       .  S
C2434      C2435   1.410       .  A
C2435      C2436   1.388       .  A
C2435      C2442   1.525       .  S
C2436      C2437   1.407       .  A
C2436      H2441   1.078       .  S
C2437      C2438   1.416       .  A
C2438      C2439   1.513       .  S
C2439      F2443   1.383       .  S
C2439      F2444   1.383       .  S
C2439      F2445   1.382       .  S
C2442      F2446   1.385       .  S
C2442      F2447   1.382       .  S
C2442      F2448   1.381       .  S
C2449      C2450   1.399       .  A
C2449      C2454   1.404       .  A
C2449      H2456   1.083   1_655  S
C2450      C2451   1.410       .  A
C2451      C2452   1.390       .  A
C2451      C2458   1.523       .  S
C2452      C2453   1.404       .  A
C2452      H2457   1.083       .  S
C2453      C2454   1.421       .  A
C2454      C2455   1.515   1_655  S
C2455      F2459   1.385       .  S
C2455      F2460   1.381       .  S
C2455      F2461   1.384       .  S
C2458      F2462   1.385       .  S
C2458      F2463   1.382       .  S
C2458      F2464   1.382       .  S
C2465      C2466   1.397       .  A
C2465      C2470   1.404       .  A
C2465      H2472   1.084       .  S
C2466      C2467   1.417       .  A
C2467      C2468   1.391       .  A
C2467      C2474   1.526       .  S
C2468      C2469   1.402       .  A
C2468      H2473   1.080       .  S
C2469      C2470   1.426       .  A
C2470      C2471   1.521       .  S
C2471      F2475   1.386       .  S
C2471      F2476   1.384       .  S
C2471      F2477   1.380   1_455  S
C2474      F2478   1.378       .  S
C2474      F2479   1.380       .  S
C2474      F2480   1.385       .  S
C2481      C2482   1.413       .  A
C2481      C2486   1.405       .  A
C2481      H2488   1.083       .  S
C2482      C2483   1.413       .  A
C2483      C2484   1.398       .  A
C2483      C2490   1.518       .  S
C2484      C2485   1.411       .  A
C2484      H2489   1.083       .  S
C2485      C2486   1.404       .  A
C2486      C2487   1.511       .  S
C2487      F2491   1.382       .  S
C2487      F2492   1.381       .  S
C2487      F2493   1.381       .  S
C2490      F2494   1.384       .  S
C2490      F2495   1.382       .  S
C2490      F2496   1.385       .  S
C2497      C2498   1.403       .  A
C2497      C2502   1.406       .  A
C2497      H2504   1.083       .  S
C2498      C2499   1.414       .  A
C2499      C2500   1.391       .  A
C2499      C2506   1.517       .  S
C2500      C2501   1.402       .  A
C2500      H2505   1.086       .  S
C2501      C2502   1.417       .  A
C2502      C2503   1.517       .  S
C2503      F2507   1.385       .  S
C2503      F2508   1.381       .  S
C2503      F2509   1.381       .  S
C2506      F2510   1.381       .  S
C2506      F2511   1.383       .  S
C2506      F2512   1.383       .  S
C2513      C2514   1.403       .  A
C2513      C2518   1.404       .  A
C2513      H2520   1.082       .  S
C2514      C2515   1.415       .  A
C2515      C2516   1.397       .  A
C2515      C2522   1.517       .  S
C2516      C2517   1.404       .  A
C2516      H2521   1.085       .  S
C2517      C2518   1.418       .  A
C2518      C2519   1.518       .  S
C2519      F2523   1.383       .  S
C2519      F2524   1.380       .  S
C2519      F2525   1.383       .  S
C2522      F2526   1.382       .  S
C2522      F2527   1.383       .  S
C2522      F2528   1.384       .  S
C2529      C2530   1.394       .  A
C2529      C2534   1.399       .  A
C2529      H2536   1.083       .  S
C2530      C2531   1.416       .  A
C2531      C2532   1.394       .  A
C2531      C2538   1.522       .  S
C2532      C2533   1.396       .  A
C2532      H2537   1.084       .  S
C2533      C2534   1.422       .  A
C2534      C2535   1.522       .  S
C2535      F2539   1.385       .  S
C2535      F2540   1.378       .  S
C2535      F2541   1.380       .  S
C2538      F2542   1.378       .  S
C2538      F2543   1.381       .  S
C2538      F2544   1.385       .  S
C2545      C2546   1.394       .  A
C2545      C2550   1.384       .  A
C2545      H2552   1.074       .  S
C2546      C2547   1.419       .  A
C2547      C2548   1.400       .  A
C2547      C2554   1.521       .  S
C2548      C2549   1.395       .  A
C2548      H2553   1.083       .  S
C2549      C2550   1.412       .  A
C2550      C2551   1.523       .  S
C2551      F2555   1.385       .  S
C2551      F2556   1.382       .  S
C2551      F2557   1.378       .  S
C2554      F2558   1.384       .  S
C2554      F2559   1.380       .  S
C2554      F2560   1.384       .  S
C2561      C2562   1.413       .  A
C2561      C2566   1.389       .  A
C2561      H2568   1.085       .  S
C2562      C2563   1.414       .  A
C2563      C2564   1.403       .  A
C2563      C2570   1.515       .  S
C2564      C2565   1.408       .  A
C2564      H2569   1.084       .  S
C2565      C2566   1.402       .  A
C2566      C2567   1.517       .  S
C2567      F2571   1.383       .  S
C2567      F2572   1.382       .  S
C2567      F2573   1.385       .  S
C2570      F2574   1.383       .  S
C2570      F2575   1.380       .  S
C2570      F2576   1.382       .  S
C2577      C2578   1.408       .  A
C2577      C2582   1.402       .  A
C2577      H2584   1.083       .  S
C2578      C2579   1.406       .  A
C2579      C2580   1.398       .  A
C2579      C2586   1.503       .  S
C2580      C2581   1.401       .  A
C2580      H2585   1.084       .  S
C2581      C2582   1.414       .  A
C2582      C2583   1.521       .  S
C2583      F2587   1.384       .  S
C2583      F2588   1.378       .  S
C2583      F2589   1.383       .  S
C2586      F2590   1.374       .  S
C2586      F2591   1.381       .  S
C2586      F2592   1.382       .  S
C2593      C2594   1.402       .  A
C2593      C2598   1.403       .  A
C2593      H2600   1.084       .  S
C2594      C2595   1.410       .  A
C2595      C2596   1.399       .  A
C2595      C2602   1.519       .  S
C2596      C2597   1.403       .  A
C2596      H2601   1.084       .  S
C2597      C2598   1.410       .  A
C2598      C2599   1.515       .  S
C2599      F2603   1.385       .  S
C2599      F2604   1.382       .  S
C2599      F2605   1.381       .  S
C2602      F2606   1.384       .  S
C2602      F2607   1.381       .  S
C2602      F2608   1.377       .  S
C2609      C2610   1.402       .  A
C2609      C2614   1.395       .  A
C2609      H2616   1.084       .  S
C2610      C2611   1.414       .  A
C2611      C2612   1.406       .  A
C2611      C2618   1.516       .  S
C2612      C2613   1.406       .  A
C2612      H2617   1.083       .  S
C2613      C2614   1.416       .  A
C2614      C2615   1.523       .  S
C2615      F2619   1.385       .  S
C2615      F2620   1.380       .  S
C2615      F2621   1.383       .  S
C2618      F2622   1.382       .  S
C2618      F2623   1.383       .  S
C2618      F2624   1.385       .  S
C2625      C2626   1.404       .  A
C2625      C2630   1.411       .  A
C2625      H2632   1.083   1_655  S
C2626      C2627   1.399       .  A
C2627      C2628   1.398       .  A
C2627      C2634   1.506       .  S
C2628      C2629   1.413       .  A
C2628      H2633   1.084       .  S
C2629      C2630   1.427       .  A
C2630      C2631   1.521       .  S
C2631      F2635   1.385   1_655  S
C2631      F2636   1.376       .  S
C2631      F2637   1.380       .  S
C2634      F2638   1.384       .  S
C2634      F2639   1.384       .  S
C2634      F2640   1.383       .  S
C2641      C2642   1.404   1_655  A
C2641      C2646   1.404       .  A
C2641      H2648   1.084       .  S
C2642      C2643   1.419       .  A
C2643      C2644   1.400       .  A
C2643      C2650   1.519       .  S
C2644      C2645   1.399       .  A
C2644      H2649   1.080       .  S
C2645      C2646   1.413   1_455  A
C2646      C2647   1.512       .  S
C2647      F2651   1.379       .  S
C2647      F2652   1.383       .  S
C2647      F2653   1.384       .  S
C2650      F2654   1.379       .  S
C2650      F2655   1.383       .  S
C2650      F2656   1.384       .  S
C2657      C2658   1.399       .  A
C2657      C2662   1.405       .  A
C2657      H2664   1.085   1_455  S
C2658      C2659   1.408       .  A
C2659      C2660   1.383       .  A
C2659      C2666   1.521       .  S
C2660      C2661   1.407       .  A
C2660      H2665   1.084       .  S
C2661      C2662   1.425       .  A
C2662      C2663   1.519   1_455  S
C2663      F2667   1.382       .  S
C2663      F2668   1.380   1_655  S
C2663      F2669   1.384       .  S
C2666      F2670   1.381       .  S
C2666      F2671   1.382       .  S
C2666      F2672   1.384       .  S
C2673      C2674   1.395       .  A
C2673      C2678   1.389       .  A
C2673      H2680   1.084       .  S
C2674      C2675   1.411       .  A
C2675      C2676   1.392       .  A
C2675      C2682   1.519       .  S
C2676      C2677   1.395       .  A
C2676      H2681   1.081       .  S
C2677      C2678   1.410       .  A
C2678      C2679   1.514       .  S
C2679      F2683   1.385       .  S
C2679      F2684   1.380       .  S
C2679      F2685   1.382       .  S
C2682      F2686   1.384       .  S
C2682      F2687   1.382       .  S
C2682      F2688   1.382       .  S
C2689      C2690   1.411       .  A
C2689      C2694   1.390       .  A
C2689      H2696   1.084       .  S
C2690      C2691   1.420       .  A
C2691      C2692   1.415       .  A
C2691      C2698   1.516       .  S
C2692      C2693   1.407       .  A
C2692      H2697   1.083       .  S
C2693      C2694   1.411       .  A
C2694      C2695   1.524       .  S
C2695      F2699   1.384       .  S
C2695      F2700   1.378       .  S
C2695      F2701   1.383       .  S
C2698      F2702   1.383       .  S
C2698      F2703   1.383       .  S
C2698      F2704   1.382       .  S
C2705      C2706   1.383       .  A
C2705      C2710   1.398       .  A
C2705      H2712   1.086       .  S
C2706      C2707   1.424       .  A
C2707      C2708   1.407       .  A
C2707      C2714   1.515       .  S
C2708      C2709   1.398       .  A
C2708      H2713   1.084       .  S
C2709      C2710   1.436       .  A
C2710      C2711   1.513       .  S
C2711      F2715   1.383       .  S
C2711      F2716   1.380       .  S
C2711      F2717   1.368       .  S
C2714      F2718   1.381       .  S
C2714      F2719   1.383       .  S
C2714      F2720   1.371       .  S
C2721      C2722   1.410       .  A
C2721      C2726   1.406       .  A
C2721      H2728   1.083       .  S
C2722      C2723   1.414       .  A
C2723      C2724   1.387       .  A
C2723      C2730   1.525       .  S
C2724      C2725   1.400       .  A
C2724      H2729   1.084       .  S
C2725      C2726   1.403       .  A
C2726      C2727   1.514       .  S
C2727      F2731   1.384       .  S
C2727      F2732   1.383       .  S
C2727      F2733   1.384       .  S
C2730      F2734   1.379       .  S
C2730      F2735   1.382       .  S
C2730      F2736   1.385       .  S
C2737      C2738   1.400       .  A
C2737      C2742   1.405       .  A
C2737      H2744   1.084       .  S
C2738      C2739   1.410       .  A
C2739      C2740   1.408       .  A
C2739      C2746   1.516       .  S
C2740      C2741   1.410       .  A
C2740      H2745   1.083       .  S
C2741      C2742   1.422       .  A
C2742      C2743   1.520       .  S
C2743      F2747   1.385       .  S
C2743      F2748   1.383       .  S
C2743      F2749   1.380       .  S
C2746      F2750   1.383       .  S
C2746      F2751   1.383       .  S
C2746      F2752   1.384       .  S
C2753      C2754   1.404       .  A
C2753      C2758   1.410       .  A
C2753      H2760   1.083       .  S
C2754      C2755   1.418       .  A
C2755      C2756   1.396       .  A
C2755      C2762   1.494       .  S
C2756      C2757   1.390       .  A
C2756      H2761   1.084       .  S
C2757      C2758   1.421       .  A
C2758      C2759   1.516       .  S
C2759      F2763   1.384       .  S
C2759      F2764   1.382       .  S
C2759      F2765   1.385       .  S
C2762      F2766   1.374       .  S
C2762      F2767   1.377       .  S
C2762      F2768   1.386       .  S
C2769      C2770   1.403       .  A
C2769      C2774   1.406       .  A
C2769      H2776   1.084       .  S
C2770      C2771   1.412       .  A
C2771      C2772   1.396       .  A
C2771      C2778   1.521       .  S
C2772      C2773   1.403       .  A
C2772      H2777   1.079       .  S
C2773      C2774   1.418       .  A
C2774      C2775   1.516       .  S
C2775      F2779   1.385       .  S
C2775      F2780   1.385       .  S
C2775      F2781   1.381       .  S
C2778      F2782   1.382       .  S
C2778      F2783   1.381       .  S
C2778      F2784   1.383       .  S
C2785      C2786   1.399       .  A
C2785      C2790   1.400       .  A
C2785      H2792   1.085       .  S
C2786      C2787   1.434       .  A
C2787      C2788   1.410       .  A
C2787      C2794   1.518   1_655  S
C2788      C2789   1.405       .  A
C2788      H2793   1.083       .  S
C2789      C2790   1.416       .  A
C2790      C2791   1.492       .  S
C2791      F2795   1.383       .  S
C2791      F2796   1.378       .  S
C2791      F2797   1.371       .  S
C2794      F2798   1.383       .  S
C2794      F2799   1.381       .  S
C2794      F2800   1.385   1_455  S
C2801      C2802   1.408       .  A
C2801      C2806   1.405       .  A
C2801      H2808   1.083       .  S
C2802      C2803   1.423       .  A
C2803      C2804   1.408       .  A
C2803      C2810   1.517       .  S
C2804      C2805   1.400       .  A
C2804      H2809   1.085       .  S
C2805      C2806   1.412       .  A
C2806      C2807   1.517       .  S
C2807      F2811   1.384   1_455  S
C2807      F2812   1.382       .  S
C2807      F2813   1.385       .  S
C2810      F2814   1.384   1_455  S
C2810      F2815   1.383       .  S
C2810      F2816   1.383       .  S
C2817      C2818   1.400       .  A
C2817      C2822   1.410       .  A
C2817      H2824   1.082       .  S
C2818      C2819   1.427       .  A
C2819      C2820   1.394       .  A
C2819      C2826   1.524       .  S
C2820      C2821   1.396       .  A
C2820      H2825   1.080       .  S
C2821      C2822   1.429       .  A
C2822      C2823   1.522       .  S
C2823      F2827   1.371       .  S
C2823      F2828   1.383       .  S
C2823      F2829   1.384       .  S
C2826      F2830   1.383       .  S
C2826      F2831   1.385       .  S
C2826      F2832   1.371       .  S
C2833      C2834   1.394       .  A
C2833      C2838   1.405       .  A
C2833      H2840   1.077       .  S
C2834      C2835   1.404       .  A
C2835      C2836   1.384       .  A
C2835      C2842   1.520       .  S
C2836      C2837   1.414       .  A
C2836      H2841   1.083       .  S
C2837      C2838   1.424       .  A
C2838      C2839   1.514       .  S
C2839      F2843   1.382       .  S
C2839      F2844   1.383       .  S
C2839      F2845   1.381       .  S
C2842      F2846   1.383       .  S
C2842      F2847   1.383       .  S
C2842      F2848   1.383       .  S
C2849      C2850   1.397       .  A
C2849      C2854   1.392       .  A
C2849      H2856   1.084       .  S
C2850      C2851   1.397       .  A
C2851      C2852   1.395       .  A
C2851      C2858   1.514       .  S
C2852      C2853   1.409       .  A
C2852      H2857   1.082       .  S
C2853      C2854   1.416       .  A
C2854      C2855   1.523       .  S
C2855      F2859   1.385       .  S
C2855      F2860   1.380       .  S
C2855      F2861   1.383       .  S
C2858      F2862   1.384       .  S
C2858      F2863   1.377       .  S
C2858      F2864   1.383       .  S
C2865      C2866   1.401       .  A
C2865      C2870   1.408       .  A
C2865      H2872   1.083       .  S
C2866      C2867   1.407       .  A
C2867      C2868   1.389       .  A
C2867      C2874   1.522       .  S
C2868      C2869   1.405       .  A
C2868      H2873   1.075       .  S
C2869      C2870   1.421       .  A
C2870      C2871   1.518       .  S
C2871      F2875   1.385       .  S
C2871      F2876   1.383       .  S
C2871      F2877   1.383       .  S
C2874      F2878   1.384       .  S
C2874      F2879   1.379       .  S
C2874      F2880   1.380       .  S
C2881      C2882   1.401       .  A
C2881      C2886   1.397       .  A
C2881      H2888   1.083       .  S
C2882      C2883   1.419       .  A
C2883      C2884   1.398       .  A
C2883      C2890   1.511       .  S
C2884      C2885   1.394       .  A
C2884      H2889   1.084       .  S
C2885      C2886   1.421       .  A
C2886      C2887   1.522       .  S
C2887      F2891   1.384       .  S
C2887      F2892   1.379       .  S
C2887      F2893   1.380       .  S
C2890      F2894   1.381       .  S
C2890      F2895   1.382       .  S
C2890      F2896   1.384       .  S
C2897      C2898   1.394       .  A
C2897      C2902   1.398       .  A
C2897      H2904   1.083       .  S
C2898      C2899   1.419       .  A
C2899      C2900   1.402       .  A
C2899      C2906   1.515       .  S
C2900      C2901   1.397       .  A
C2900      H2905   1.084       .  S
C2901      C2902   1.425       .  A
C2902      C2903   1.518       .  S
C2903      F2907   1.384       .  S
C2903      F2908   1.376       .  S
C2903      F2909   1.378       .  S
C2906      F2910   1.384       .  S
C2906      F2911   1.381       .  S
C2906      F2912   1.383       .  S
C2913      C2914   1.403       .  A
C2913      C2918   1.400       .  A
C2913      H2920   1.085       .  S
C2914      C2915   1.412       .  A
C2915      C2916   1.403       .  A
C2915      C2922   1.513   1_545  S
C2916      C2917   1.405       .  A
C2916      H2921   1.084       .  S
C2917      C2918   1.410       .  A
C2918      C2919   1.513       .  S
C2919      F2923   1.383       .  S
C2919      F2924   1.383       .  S
C2919      F2925   1.383       .  S
C2922      F2926   1.383       .  S
C2922      F2927   1.384       .  S
C2922      F2928   1.383       .  S
C2929      C2930   1.404   1_565  A
C2929      C2934   1.409       .  A
C2929      H2936   1.083       .  S
C2930      C2931   1.420       .  A
C2931      C2932   1.393   1_545  A
C2931      C2938   1.512       .  S
C2932      C2933   1.395       .  A
C2932      H2937   1.084   1_565  S
C2933      C2934   1.413       .  A
C2934      C2935   1.510       .  S
C2935      F2939   1.383       .  S
C2935      F2940   1.378       .  S
C2935      F2941   1.384       .  S
C2938      F2942   1.381       .  S
C2938      F2943   1.383       .  S
C2938      F2944   1.384       .  S
C2945      C2946   1.403   1_565  A
C2945      C2950   1.404   1_565  A
C2945      H2952   1.084       .  S
C2946      C2947   1.418       .  A
C2947      C2948   1.390       .  A
C2947      C2954   1.521       .  S
C2948      C2949   1.398       .  A
C2948      H2953   1.086       .  S
C2949      C2950   1.407       .  A
C2950      C2951   1.507   1_545  S
C2951      F2955   1.382       .  S
C2951      F2956   1.382       .  S
C2951      F2957   1.382       .  S
C2954      F2958   1.378       .  S
C2954      F2959   1.384       .  S
C2954      F2960   1.384       .  S
C2961      C2962   1.405       .  A
C2961      C2966   1.396   1_565  A
C2961      H2968   1.085       .  S
C2962      C2963   1.404   1_565  A
C2963      C2964   1.398       .  A
C2963      C2970   1.509       .  S
C2964      C2965   1.408       .  A
C2964      H2969   1.085       .  S
C2965      C2966   1.411       .  A
C2966      C2967   1.516       .  S
C2967      F2971   1.383   1_545  S
C2967      F2972   1.383       .  S
C2967      F2973   1.383       .  S
C2970      F2974   1.383   1_545  S
C2970      F2975   1.374   1_545  S
C2970      F2976   1.381       .  S
C2977      C2978   1.398       .  A
C2977      C2982   1.410       .  A
C2977      H2984   1.083       .  S
C2978      C2979   1.423       .  A
C2979      C2980   1.395       .  A
C2979      C2986   1.528       .  S
C2980      C2981   1.405       .  A
C2980      H2985   1.083       .  S
C2981      C2982   1.430       .  A
C2982      C2983   1.516       .  S
C2983      F2987   1.385       .  S
C2983      F2988   1.378       .  S
C2983      F2989   1.383       .  S
C2986      F2990   1.382       .  S
C2986      F2991   1.376       .  S
C2986      F2992   1.386       .  S
C2993      C2994   1.409       .  A
C2993      C2998   1.404       .  A
C2993      H3000   1.083       .  S
C2994      C2995   1.412       .  A
C2995      C2996   1.390       .  A
C2995      C3002   1.518       .  S
C2996      C2997   1.405       .  A
C2996      H3001   1.086       .  S
C2997      C2998   1.409       .  A
C2998      C2999   1.516       .  S
C2999      F3003   1.384   1_565  S
C2999      F3004   1.382       .  S
C2999      F3005   1.384       .  S
C3002      F3006   1.383       .  S
C3002      F3007   1.383       .  S
C3002      F3008   1.384       .  S
C3009      C3010   1.393       .  A
C3009      C3014   1.399       .  A
C3009      H3016   1.084       .  S
C3010      C3011   1.414       .  A
C3011      C3012   1.397       .  A
C3011      C3018   1.515       .  S
C3012      C3013   1.397       .  A
C3012      H3017   1.084       .  S
C3013      C3014   1.416       .  A
C3014      C3015   1.510       .  S
C3015      F3019   1.384       .  S
C3015      F3020   1.375       .  S
C3015      F3021   1.381       .  S
C3018      F3022   1.384       .  S
C3018      F3023   1.378       .  S
C3018      F3024   1.384       .  S
C3025      C3026   1.401       .  A
C3025      C3030   1.407       .  A
C3025      H3032   1.084       .  S
C3026      C3027   1.408       .  A
C3027      C3028   1.394       .  A
C3027      C3034   1.501       .  S
C3028      C3029   1.404       .  A
C3028      H3033   1.076       .  S
C3029      C3030   1.423       .  A
C3030      C3031   1.510       .  S
C3031      F3035   1.382       .  S
C3031      F3036   1.382       .  S
C3031      F3037   1.383       .  S
C3034      F3038   1.384       .  S
C3034      F3039   1.382       .  S
C3034      F3040   1.383       .  S
C3041      C3042   1.407       .  A
C3041      C3046   1.399       .  A
C3041      H3048   1.084       .  S
C3042      C3043   1.419   1_556  A
C3043      C3044   1.396       .  A
C3043      C3050   1.521       .  S
C3044      C3045   1.405       .  A
C3044      H3049   1.083       .  S
C3045      C3046   1.402   1_554  A
C3046      C3047   1.509       .  S
C3047      F3051   1.379       .  S
C3047      F3052   1.373       .  S
C3047      F3053   1.381       .  S
C3050      F3054   1.383       .  S
C3050      F3055   1.382       .  S
C3050      F3056   1.385       .  S
C3057      C3058   1.402       .  A
C3057      C3062   1.400       .  A
C3057      H3064   1.084       .  S
C3058      C3059   1.407       .  A
C3059      C3060   1.402       .  A
C3059      C3066   1.513       .  S
C3060      C3061   1.405       .  A
C3060      H3065   1.080       .  S
C3061      C3062   1.414       .  A
C3062      C3063   1.513       .  S
C3063      F3067   1.383       .  S
C3063      F3068   1.382       .  S
C3063      F3069   1.383       .  S
C3066      F3070   1.383   1_554  S
C3066      F3071   1.382   1_554  S
C3066      F3072   1.384   1_554  S
C3073      C3074   1.400       .  A
C3073      C3078   1.411   1_554  A
C3073      H3080   1.084       .  S
C3074      C3075   1.421       .  A
C3075      C3076   1.402       .  A
C3075      C3082   1.514       .  S
C3076      C3077   1.399   1_554  A
C3076      H3081   1.085   1_554  S
C3077      C3078   1.423       .  A
C3078      C3079   1.510       .  S
C3079      F3083   1.383   1_556  S
C3079      F3084   1.380       .  S
C3079      F3085   1.383       .  S
C3082      F3086   1.382       .  S
C3082      F3087   1.384       .  S
C3082      F3088   1.383       .  S
C3089      C3090   1.403       .  A
C3089      C3094   1.405       .  A
C3089      H3096   1.083       .  S
C3090      C3091   1.421       .  A
C3091      C3092   1.405       .  A
C3091      C3098   1.516       .  S
C3092      C3093   1.399       .  A
C3092      H3097   1.085       .  S
C3093      C3094   1.415       .  A
C3094      C3095   1.518       .  S
C3095      F3099   1.384       .  S
C3095      F3100   1.382       .  S
C3095      F3101   1.383       .  S
C3098      F3102   1.383       .  S
C3098      F3103   1.383       .  S
C3098      F3104   1.383       .  S
C3105      C3106   1.399       .  A
C3105      C3110   1.402       .  A
C3105      H3112   1.085       .  S
C3106      C3107   1.425       .  A
C3107      C3108   1.408       .  A
C3107      C3114   1.520   1_554  S
C3108      C3109   1.400       .  A
C3108      H3113   1.084   1_554  S
C3109      C3110   1.427       .  A
C3110      C3111   1.520       .  S
C3111      F3115   1.383       .  S
C3111      F3116   1.377       .  S
C3111      F3117   1.383       .  S
C3114      F3118   1.383   1_556  S
C3114      F3119   1.378       .  S
C3114      F3120   1.386       .  S
C3121      C3122   1.407       .  A
C3121      C3126   1.396       .  A
C3121      H3128   1.084       .  S
C3122      C3123   1.414       .  A
C3123      C3124   1.398       .  A
C3123      C3130   1.518       .  S
C3124      C3125   1.406       .  A
C3124      H3129   1.084   1_556  S
C3125      C3126   1.408       .  A
C3126      C3127   1.515       .  S
C3127      F3131   1.383       .  S
C3127      F3132   1.384       .  S
C3127      F3133   1.381       .  S
C3130      F3134   1.382       .  S
C3130      F3135   1.383   1_556  S
C3130      F3136   1.383       .  S
C3137      C3138   1.389       .  A
C3137      C3142   1.388       .  A
C3137      H3144   1.083       .  S
C3138      C3139   1.428       .  A
C3139      C3140   1.399       .  A
C3139      C3146   1.522       .  S
C3140      C3141   1.393       .  A
C3140      H3145   1.084       .  S
C3141      C3142   1.406       .  A
C3142      C3143   1.498       .  S
C3143      F3147   1.383       .  S
C3143      F3148   1.383       .  S
C3143      F3149   1.380       .  S
C3146      F3150   1.380       .  S
C3146      F3151   1.378       .  S
C3146      F3152   1.386       .  S
C3153      C3154   1.403       .  A
C3153      C3158   1.376       .  A
C3153      H3160   1.081       .  S
C3154      C3155   1.423       .  A
C3155      C3156   1.406       .  A
C3155      C3162   1.518       .  S
C3156      C3157   1.402       .  A
C3156      H3161   1.085       .  S
C3157      C3158   1.407       .  A
C3158      C3159   1.522       .  S
C3159      F3163   1.384       .  S
C3159      F3164   1.378       .  S
C3159      F3165   1.383       .  S
C3162      F3166   1.380       .  S
C3162      F3167   1.378       .  S
C3162      F3168   1.383       .  S
C3169      C3170   1.400       .  A
C3169      C3174   1.402       .  A
C3169      H3176   1.084       .  S
C3170      C3171   1.411       .  A
C3171      C3172   1.392       .  A
C3171      C3178   1.518       .  S
C3172      C3173   1.402       .  A
C3172      H3177   1.084       .  S
C3173      C3174   1.407       .  A
C3174      C3175   1.512       .  S
C3175      F3179   1.380       .  S
C3175      F3180   1.381       .  S
C3175      F3181   1.382       .  S
C3178      F3182   1.382       .  S
C3178      F3183   1.383       .  S
C3178      F3184   1.383       .  S
C3185      C3186   1.403       .  A
C3185      C3190   1.389       .  A
C3185      H3192   1.084       .  S
C3186      C3187   1.428       .  A
C3187      C3188   1.399       .  A
C3187      C3194   1.516       .  S
C3188      C3189   1.393       .  A
C3188      H3193   1.083       .  S
C3189      C3190   1.407       .  A
C3190      C3191   1.510       .  S
C3191      F3195   1.384       .  S
C3191      F3196   1.383       .  S
C3191      F3197   1.381       .  S
C3194      F3198   1.382       .  S
C3194      F3199   1.379       .  S
C3194      F3200   1.385       .  S
C3201      C3202   1.398       .  A
C3201      C3206   1.400       .  A
C3201      H3208   1.085       .  S
C3202      C3203   1.419       .  A
C3203      C3204   1.401       .  A
C3203      C3210   1.517       .  S
C3204      C3205   1.403       .  A
C3204      H3209   1.082       .  S
C3205      C3206   1.420       .  A
C3206      C3207   1.516       .  S
C3207      F3211   1.384       .  S
C3207      F3212   1.383       .  S
C3207      F3213   1.383       .  S
C3210      F3214   1.385       .  S
C3210      F3215   1.378       .  S
C3210      F3216   1.381       .  S
C3217      C3218   1.405       .  A
C3217      C3222   1.398       .  A
C3217      H3224   1.084       .  S
C3218      C3219   1.407       .  A
C3219      C3220   1.400       .  A
C3219      C3226   1.520       .  S
C3220      C3221   1.409       .  A
C3220      H3225   1.083       .  S
C3221      C3222   1.412       .  A
C3222      C3223   1.519       .  S
C3223      F3227   1.385       .  S
C3223      F3228   1.383       .  S
C3223      F3229   1.383       .  S
C3226      F3230   1.381       .  S
C3226      F3231   1.379       .  S
C3226      F3232   1.380       .  S
C3233      C3234   1.401   1_554  A
C3233      C3238   1.403       .  A
C3233      H3240   1.084       .  S
C3234      C3235   1.411   1_556  A
C3235      C3236   1.404       .  A
C3235      C3242   1.515   1_554  S
C3236      C3237   1.404       .  A
C3236      H3241   1.084       .  S
C3237      C3238   1.412       .  A
C3238      C3239   1.509       .  S
C3239      F3243   1.384       .  S
C3239      F3244   1.378       .  S
C3239      F3245   1.380       .  S
C3242      F3246   1.382       .  S
C3242      F3247   1.384       .  S
C3242      F3248   1.384   1_556  S
C3249      C3250   1.401       .  A
C3249      C3254   1.406       .  A
C3249      H3256   1.084       .  S
C3250      C3251   1.406       .  A
C3251      C3252   1.391       .  A
C3251      C3258   1.515       .  S
C3252      C3253   1.405       .  A
C3252      H3257   1.082       .  S
C3253      C3254   1.416       .  A
C3254      C3255   1.513       .  S
C3255      F3259   1.385       .  S
C3255      F3260   1.381       .  S
C3255      F3261   1.381       .  S
C3258      F3262   1.384       .  S
C3258      F3263   1.382       .  S
C3258      F3264   1.384       .  S
C3265      C3266   1.404       .  A
C3265      C3270   1.400       .  A
C3265      H3272   1.083       .  S
C3266      C3267   1.407       .  A
C3267      C3268   1.401       .  A
C3267      C3274   1.510       .  S
C3268      C3269   1.404       .  A
C3268      H3273   1.082       .  S
C3269      C3270   1.411       .  A
C3270      C3271   1.511       .  S
C3271      F3275   1.382       .  S
C3271      F3276   1.383       .  S
C3271      F3277   1.383       .  S
C3274      F3278   1.378       .  S
C3274      F3279   1.383       .  S
C3274      F3280   1.384       .  S
C3281      C3282   1.408       .  A
C3281      C3286   1.394       .  A
C3281      H3288   1.081       .  S
C3282      C3283   1.421       .  A
C3283      C3284   1.404       .  A
C3283      C3290   1.521       .  S
C3284      C3285   1.403       .  A
C3284      H3289   1.085       .  S
C3285      C3286   1.407       .  A
C3286      C3287   1.516       .  S
C3287      F3291   1.384       .  S
C3287      F3292   1.383       .  S
C3287      F3293   1.379       .  S
C3290      F3294   1.383       .  S
C3290      F3295   1.382       .  S
C3290      F3296   1.380       .  S
C3297      C3298   1.404       .  A
C3297      C3302   1.383       .  A
C3297      H3304   1.084       .  S
C3298      C3299   1.403       .  A
C3299      C3300   1.400       .  A
C3299      C3306   1.516       .  S
C3300      C3301   1.410       .  A
C3300      H3305   1.080       .  S
C3301      C3302   1.410       .  A
C3302      C3303   1.525       .  S
C3303      F3307   1.385       .  S
C3303      F3308   1.381       .  S
C3303      F3309   1.383       .  S
C3306      F3310   1.382       .  S
C3306      F3311   1.383   1_556  S
C3306      F3312   1.384       .  S
C3313      C3314   1.404       .  A
C3313      C3318   1.401       .  A
C3313      H3320   1.084       .  S
C3314      C3315   1.406       .  A
C3315      C3316   1.386       .  A
C3315      C3322   1.514   1_554  S
C3316      C3317   1.410       .  A
C3316      H3321   1.082       .  S
C3317      C3318   1.414       .  A
C3318      C3319   1.508       .  S
C3319      F3323   1.380       .  S
C3319      F3324   1.381       .  S
C3319      F3325   1.383       .  S
C3322      F3326   1.377       .  S
C3322      F3327   1.385       .  S
C3322      F3328   1.385       .  S
C3329      C3330   1.406       .  A
C3329      C3334   1.390       .  A
C3329      H3336   1.083       .  S
C3330      C3331   1.412       .  A
C3331      C3332   1.401       .  A
C3331      C3338   1.513   1_556  S
C3332      C3333   1.404       .  A
C3332      H3337   1.084       .  S
C3333      C3334   1.407       .  A
C3334      C3335   1.518       .  S
C3335      F3339   1.384       .  S
C3335      F3340   1.383       .  S
C3335      F3341   1.382       .  S
C3338      F3342   1.384       .  S
C3338      F3343   1.378       .  S
C3338      F3344   1.384       .  S
C3345      C3346   1.404       .  A
C3345      C3350   1.400       .  A
C3345      H3352   1.085       .  S
C3346      C3347   1.412       .  A
C3347      C3348   1.403       .  A
C3347      C3354   1.513       .  S
C3348      C3349   1.405       .  A
C3348      H3353   1.085       .  S
C3349      C3350   1.413       .  A
C3350      C3351   1.515       .  S
C3351      F3355   1.383       .  S
C3351      F3356   1.383       .  S
C3351      F3357   1.382       .  S
C3354      F3358   1.383       .  S
C3354      F3359   1.384       .  S
C3354      F3360   1.384       .  S
C3361      C3362   1.404       .  A
C3361      C3366   1.403       .  A
C3361      H3368   1.083       .  S
C3362      C3363   1.413       .  A
C3363      C3364   1.408       .  A
C3363      C3370   1.515       .  S
C3364      C3365   1.408       .  A
C3364      H3369   1.083       .  S
C3365      C3366   1.420       .  A
C3366      C3367   1.523       .  S
C3367      F3371   1.385       .  S
C3367      F3372   1.382       .  S
C3367      F3373   1.381       .  S
C3370      F3374   1.383       .  S
C3370      F3375   1.382       .  S
C3370      F3376   1.385       .  S
C3377      C3378   1.397       .  A
C3377      C3382   1.396       .  A
C3377      H3384   1.085       .  S
C3378      C3379   1.422       .  A
C3379      C3380   1.407       .  A
C3379      C3386   1.517       .  S
C3380      C3381   1.398       .  A
C3380      H3385   1.084       .  S
C3381      C3382   1.430       .  A
C3382      C3383   1.528       .  S
C3383      F3387   1.383       .  S
C3383      F3388   1.375       .  S
C3383      F3389   1.384       .  S
C3386      F3390   1.383       .  S
C3386      F3391   1.382       .  S
C3386      F3392   1.379       .  S
C3393      C3394   1.407       .  A
C3393      C3398   1.400       .  A
C3393      H3400   1.083       .  S
C3394      C3395   1.419       .  A
C3395      C3396   1.398       .  A
C3395      C3402   1.511       .  S
C3396      C3397   1.398       .  A
C3396      H3401   1.085       .  S
C3397      C3398   1.410       .  A
C3398      C3399   1.518       .  S
C3399      F3403   1.385       .  S
C3399      F3404   1.383       .  S
C3399      F3405   1.383       .  S
C3402      F3406   1.376       .  S
C3402      F3407   1.381       .  S
C3402      F3408   1.383       .  S
C3409      C3410   1.402       .  A
C3409      C3414   1.409       .  A
C3409      H3416   1.084       .  S
C3410      C3411   1.411       .  A
C3411      C3412   1.397       .  A
C3411      C3418   1.513       .  S
C3412      C3413   1.406       .  A
C3412      H3417   1.084       .  S
C3413      C3414   1.421       .  A
C3414      C3415   1.515       .  S
C3415      F3419   1.383       .  S
C3415      F3420   1.382       .  S
C3415      F3421   1.383       .  S
C3418      F3422   1.383       .  S
C3418      F3423   1.383       .  S
C3418      F3424   1.384       .  S
C3425      C3426   1.396       .  A
C3425      C3430   1.400       .  A
C3425      H3432   1.084       .  S
C3426      C3427   1.417       .  A
C3427      C3428   1.393   1_545  A
C3427      C3434   1.516       .  S
C3428      C3429   1.393   1_565  A
C3428      H3433   1.080       .  S
C3429      C3430   1.398       .  A
C3430      C3431   1.496       .  S
C3431      F3435   1.375       .  S
C3431      F3436   1.383   1_545  S
C3431      F3437   1.383       .  S
C3434      F3438   1.378       .  S
C3434      F3439   1.383       .  S
C3434      F3440   1.385   1_545  S
C3441      C3442   1.404       .  A
C3441      C3446   1.397       .  A
C3441      H3448   1.075       .  S
C3442      C3443   1.420   1_565  A
C3443      C3444   1.400       .  A
C3443      C3450   1.508       .  S
C3444      C3445   1.396   1_545  A
C3444      H3449   1.084       .  S
C3445      C3446   1.416       .  A
C3446      C3447   1.516       .  S
C3447      F3451   1.383   1_565  S
C3447      F3452   1.385       .  S
C3447      F3453   1.380       .  S
C3450      F3454   1.381       .  S
C3450      F3455   1.383       .  S
C3450      F3456   1.380       .  S
C3457      C3458   1.403       .  A
C3457      C3462   1.399       .  A
C3457      H3464   1.084       .  S
C3458      C3459   1.413       .  A
C3459      C3460   1.393       .  A
C3459      C3466   1.511       .  S
C3460      C3461   1.396       .  A
C3460      H3465   1.086       .  S
C3461      C3462   1.407       .  A
C3462      C3463   1.517       .  S
C3463      F3467   1.385       .  S
C3463      F3468   1.383       .  S
C3463      F3469   1.383       .  S
C3466      F3470   1.377       .  S
C3466      F3471   1.383       .  S
C3466      F3472   1.383       .  S
C3473      C3474   1.404       .  A
C3473      C3478   1.399       .  A
C3473      H3480   1.084       .  S
C3474      C3475   1.407       .  A
C3475      C3476   1.388       .  A
C3475      C3482   1.518       .  S
C3476      C3477   1.414       .  A
C3476      H3481   1.081       .  S
C3477      C3478   1.413       .  A
C3478      C3479   1.511       .  S
C3479      F3483   1.383       .  S
C3479      F3484   1.383       .  S
C3479      F3485   1.381       .  S
C3482      F3486   1.384       .  S
C3482      F3487   1.383       .  S
C3482      F3488   1.384       .  S
C3489      C3490   1.400       .  A
C3489      C3494   1.401       .  A
C3489      H3496   1.083       .  S
C3490      C3491   1.406       .  A
C3491      C3492   1.393       .  A
C3491      C3498   1.518       .  S
C3492      C3493   1.398       .  A
C3492      H3497   1.074       .  S
C3493      C3494   1.415       .  A
C3494      C3495   1.513       .  S
C3495      F3499   1.385       .  S
C3495      F3500   1.375       .  S
C3495      F3501   1.383       .  S
C3498      F3502   1.382       .  S
C3498      F3503   1.383       .  S
C3498      F3504   1.381       .  S
C3505      C3506   1.405   1_545  A
C3505      C3510   1.405       .  A
C3505      H3512   1.084       .  S
C3506      C3507   1.411       .  A
C3507      C3508   1.388   1_565  A
C3507      C3514   1.522       .  S
C3508      C3509   1.400       .  A
C3508      H3513   1.083       .  S
C3509      C3510   1.407       .  A
C3510      C3511   1.513       .  S
C3511      F3515   1.384       .  S
C3511      F3516   1.383       .  S
C3511      F3517   1.382       .  S
C3514      F3518   1.383       .  S
C3514      F3519   1.382       .  S
C3514      F3520   1.383       .  S
C3521      C3522   1.399       .  A
C3521      C3526   1.396       .  A
C3521      H3528   1.081       .  S
C3522      C3523   1.432       .  A
C3523      C3524   1.406       .  A
C3523      C3530   1.520       .  S
C3524      C3525   1.394       .  A
C3524      H3529   1.083       .  S
C3525      C3526   1.419       .  A
C3526      C3527   1.519       .  S
C3527      F3531   1.384       .  S
C3527      F3532   1.379       .  S
C3527      F3533   1.379       .  S
C3530      F3534   1.383       .  S
C3530      F3535   1.383       .  S
C3530      F3536   1.385       .  S
C3537      C3538   1.410       .  A
C3537      C3542   1.395       .  A
C3537      H3544   1.080       .  S
C3538      C3539   1.425       .  A
C3539      C3540   1.401       .  A
C3539      C3546   1.515       .  S
C3540      C3541   1.396       .  A
C3540      H3545   1.084       .  S
C3541      C3542   1.405       .  A
C3542      C3543   1.511       .  S
C3543      F3547   1.385       .  S
C3543      F3548   1.383       .  S
C3543      F3549   1.379       .  S
C3546      F3550   1.382       .  S
C3546      F3551   1.383       .  S
C3546      F3552   1.384       .  S
C3553      C3554   1.411       .  A
C3553      C3558   1.399       .  A
C3553      H3560   1.081       .  S
C3554      C3555   1.423       .  A
C3555      C3556   1.402       .  A
C3555      C3562   1.525       .  S
C3556      C3557   1.405       .  A
C3556      H3561   1.082       .  S
C3557      C3558   1.407       .  A
C3558      C3559   1.511       .  S
C3559      F3563   1.379       .  S
C3559      F3564   1.381       .  S
C3559      F3565   1.385       .  S
C3562      F3566   1.380       .  S
C3562      F3567   1.383       .  S
C3562      F3568   1.383       .  S
C3569      C3570   1.407       .  A
C3569      C3574   1.396       .  A
C3569      H3576   1.084       .  S
C3570      C3571   1.423       .  A
C3571      C3572   1.395       .  A
C3571      C3578   1.521       .  S
C3572      C3573   1.400       .  A
C3572      H3577   1.079       .  S
C3573      C3574   1.411       .  A
C3574      C3575   1.515       .  S
C3575      F3579   1.384       .  S
C3575      F3580   1.383       .  S
C3575      F3581   1.383       .  S
C3578      F3582   1.382       .  S
C3578      F3583   1.376       .  S
C3578      F3584   1.382       .  S
C3585      C3586   1.407       .  A
C3585      C3590   1.396       .  A
C3585      H3592   1.084       .  S
C3586      C3587   1.426       .  A
C3587      C3588   1.411       .  A
C3587      C3594   1.516       .  S
C3588      C3589   1.400       .  A
C3588      H3593   1.084       .  S
C3589      C3590   1.423       .  A
C3590      C3591   1.522       .  S
C3591      F3595   1.383       .  S
C3591      F3596   1.375       .  S
C3591      F3597   1.384       .  S
C3594      F3598   1.383       .  S
C3594      F3599   1.382       .  S
C3594      F3600   1.385       .  S
C3601      C3602   1.397       .  A
C3601      C3606   1.388       .  A
C3601      H3608   1.086   1_455  S
C3602      C3603   1.407       .  A
C3603      C3604   1.404       .  A
C3603      C3610   1.514       .  S
C3604      C3605   1.409       .  A
C3604      H3609   1.084       .  S
C3605      C3606   1.408       .  A
C3606      C3607   1.508       .  S
C3607      F3611   1.383       .  S
C3607      F3612   1.383       .  S
C3607      F3613   1.381       .  S
C3610      F3614   1.383   1_455  S
C3610      F3615   1.383   1_455  S
C3610      F3616   1.385       .  S
C3617      C3618   1.411       .  A
C3617      C3622   1.390   1_565  A
C3617      H3624   1.082       .  S
C3618      C3619   1.419   1_565  A
C3619      C3620   1.403       .  A
C3619      C3626   1.517       .  S
C3620      C3621   1.405       .  A
C3620      H3625   1.084       .  S
C3621      C3622   1.408       .  A
C3622      C3623   1.522       .  S
C3623      F3627   1.384   1_545  S
C3623      F3628   1.384       .  S
C3623      F3629   1.382       .  S
C3626      F3630   1.383       .  S
C3626      F3631   1.383   1_545  S
C3626      F3632   1.383       .  S
C3633      C3634   1.402       .  A
C3633      C3638   1.395       .  A
C3633      H3640   1.083       .  S
C3634      C3635   1.416       .  A
C3635      C3636   1.400       .  A
C3635      C3642   1.502       .  S
C3636      C3637   1.393       .  A
C3636      H3641   1.083       .  S
C3637      C3638   1.414       .  A
C3638      C3639   1.520       .  S
C3639      F3643   1.384       .  S
C3639      F3644   1.382       .  S
C3639      F3645   1.382       .  S
C3642      F3646   1.377       .  S
C3642      F3647   1.380   1_556  S
C3642      F3648   1.381   1_556  S
C3649      C3650   1.401       .  A
C3649      C3654   1.404       .  A
C3649      H3656   1.085   1_554  S
C3650      C3651   1.412       .  A
C3651      C3652   1.406       .  A
C3651      C3658   1.514       .  S
C3652      C3653   1.405   1_455  A
C3652      H3657   1.083       .  S
C3653      C3654   1.418   1_655  A
C3654      C3655   1.514       .  S
C3655      F3659   1.384       .  S
C3655      F3660   1.384   1_455  S
C3655      F3661   1.383   1_455  S
C3658      F3662   1.383       .  S
C3658      F3663   1.382       .  S
C3658      F3664   1.384       .  S
C3665      C3666   1.411       .  A
C3665      C3670   1.399       .  A
C3665      H3672   1.083       .  S
C3666      C3667   1.408       .  A
C3667      C3668   1.398       .  A
C3667      C3674   1.511       .  S
C3668      C3669   1.414       .  A
C3668      H3673   1.084       .  S
C3669      C3670   1.413       .  A
C3670      C3671   1.519       .  S
C3671      F3675   1.382       .  S
C3671      F3676   1.384       .  S
C3671      F3677   1.382       .  S
C3674      F3678   1.384       .  S
C3674      F3679   1.383       .  S
C3674      F3680   1.383       .  S
C3681      C3682   1.408       .  A
C3681      C3686   1.417       .  A
C3681      H3688   1.083       .  S
C3682      C3683   1.414       .  A
C3683      C3684   1.388       .  A
C3683      C3690   1.508       .  S
C3684      C3685   1.398       .  A
C3684      H3689   1.086       .  S
C3685      C3686   1.415       .  A
C3686      C3687   1.513       .  S
C3687      F3691   1.385       .  S
C3687      F3692   1.383       .  S
C3687      F3693   1.383       .  S
C3690      F3694   1.382       .  S
C3690      F3695   1.377       .  S
C3690      F3696   1.385       .  S
C3697      C3698   1.408       .  A
C3697      C3702   1.403       .  A
C3697      H3704   1.083       .  S
C3698      C3699   1.415   1_554  A
C3699      C3700   1.407   1_556  A
C3699      C3706   1.511   1_565  S
C3700      C3701   1.408       .  A
C3700      H3705   1.084   1_554  S
C3701      C3702   1.411       .  A
C3702      C3703   1.506       .  S
C3703      F3707   1.385       .  S
C3703      F3708   1.382       .  S
C3703      F3709   1.381       .  S
C3706      F3710   1.382       .  S
C3706      F3711   1.384       .  S
C3706      F3712   1.385       .  S
C3713      C3714   1.410       .  A
C3713      C3718   1.405       .  A
C3713      H3720   1.084       .  S
C3714      C3715   1.422       .  A
C3715      C3716   1.405       .  A
C3715      C3722   1.507   1_554  S
C3716      C3717   1.398       .  A
C3716      H3721   1.083       .  S
C3717      C3718   1.410       .  A
C3718      C3719   1.516       .  S
C3719      F3723   1.385       .  S
C3719      F3724   1.382       .  S
C3719      F3725   1.383       .  S
C3722      F3726   1.372   1_566  S
C3722      F3727   1.383       .  S
C3722      F3728   1.384       .  S
C3729      C3730   1.406       .  A
C3729      C3734   1.406       .  A
C3729      H3736   1.084       .  S
C3730      C3731   1.417       .  A
C3731      C3732   1.402       .  A
C3731      C3738   1.518       .  S
C3732      C3733   1.400       .  A
C3732      H3737   1.083       .  S
C3733      C3734   1.412       .  A
C3734      C3735   1.518       .  S
C3735      F3739   1.382       .  S
C3735      F3740   1.381       .  S
C3735      F3741   1.384       .  S
C3738      F3742   1.382       .  S
C3738      F3743   1.383       .  S
C3738      F3744   1.385       .  S
C3745      C3746   1.413       .  A
C3745      C3750   1.401       .  A
C3745      H3752   1.084       .  S
C3746      C3747   1.415       .  A
C3747      C3748   1.393       .  A
C3747      C3754   1.501       .  S
C3748      C3749   1.396       .  A
C3748      H3753   1.084       .  S
C3749      C3750   1.405       .  A
C3750      C3751   1.516       .  S
C3751      F3755   1.382       .  S
C3751      F3756   1.385       .  S
C3751      F3757   1.382       .  S
C3754      F3758   1.373       .  S
C3754      F3759   1.377       .  S
C3754      F3760   1.385       .  S
C3761      C3762   1.409       .  A
C3761      C3766   1.402       .  A
C3761      H3768   1.082       .  S
C3762      C3763   1.418       .  A
C3763      C3764   1.394       .  A
C3763      C3770   1.501       .  S
C3764      C3765   1.390       .  A
C3764      H3769   1.085       .  S
C3765      C3766   1.413       .  A
C3766      C3767   1.518       .  S
C3767      F3771   1.381       .  S
C3767      F3772   1.378       .  S
C3767      F3773   1.385       .  S
C3770      F3774   1.381       .  S
C3770      F3775   1.375       .  S
C3770      F3776   1.384       .  S
