geometry optimzed in LAMMPS
_audit_creation_date              2020-11-30 
_audit_creation_method            'lammps2cif' 
_symmetry_space_group_name_H-M    'P1' 
_symmetry_Int_Tables_number       1 
_symmetry_cell_setting            triclinic 
loop_ 
_symmetry_equiv_pos_as_xyz 
  x,y,z 
_cell_length_a                    34.25050569 
_cell_length_b                    35.0552248334436 
_cell_length_c                    34.416159074743405 
_cell_angle_alpha                 90.95162935754415 
_cell_angle_beta                  91.9649450142369 
_cell_angle_gamma                 89.28785997101868 
loop_ 
_atom_site_label 
_atom_site_type_symbol 
_atom_site_fract_x 
_atom_site_fract_y 
_atom_site_fract_z 
_atom_site_charge 
O1          O  0.31223034  0.68240886  0.77644625    -0.80600
O2          O  0.31409260  0.78699152  0.72724470    -0.80600
O3          O  0.27975562  0.69799188  0.67519868    -0.80600
O4          O  0.23957239  0.79076154  0.81761766    -0.80500
O5          O  0.27339105  0.75937928  0.66205399    -0.80700
O6          O  0.29203428  0.75354800  0.81802973    -0.80600
O7          O  0.27737626  0.81500205  0.76684598    -0.80600
O8          O  0.27440859  0.65062799  0.73302501    -0.80600
C9          C  0.30681613  0.65470163  0.75188681     1.09100
C10         C  0.31093090  0.81156437  0.75369512     1.09000
C11         C  0.28674137  0.72613721  0.65435185     1.09100
C12         C  0.27172127  0.77989830  0.83382544     1.09000
O13         O  0.21320864  0.72586315  0.82125344    -0.80600
O14         O  0.20095798  0.77290843  0.70046784    -0.80700
O15         O  0.19311936  0.67244354  0.74259582    -0.80600
O16         O  0.20523604  0.83390226  0.74813776    -0.80600
O17         O  0.24722993  0.83127480  0.69895418    -0.80600
O18         O  0.23587862  0.65941237  0.78971778    -0.80600
O19         O  0.17885332  0.75549728  0.77379991    -0.80500
O20         O  0.19993417  0.71720584  0.67239526    -0.80600
Co21       Co  0.26421291  0.70751857  0.79874835     1.51500
Co22       Co  0.25712410  0.77808572  0.71506235     1.51700
Co23       Co  0.23662789  0.68800854  0.70885138     1.51600
Co24       Co  0.22823456  0.78230092  0.76091715     1.51500
O25         O  0.25428530  0.73096186  0.74642386    -1.42500
C26         C  0.18050530  0.73758302  0.80615661     1.09000
C27         C  0.18999244  0.75207211  0.67236277     1.09100
C28         C  0.20220004  0.65572037  0.77424587     1.09100
C29         C  0.22061467  0.84943357  0.71810308     1.09000
O30         O  0.74213521  0.20570684  0.68745157    -0.80600
O31         O  0.75525970  0.18932285  0.82007143    -0.80600
O32         O  0.82395370  0.24656563  0.71706650    -0.80600
O33         O  0.66037383  0.24235850  0.78696785    -0.80500
O34         O  0.80961824  0.19521607  0.75064681    -0.80700
O35         O  0.68322619  0.19977729  0.74439737    -0.80600
O36         O  0.71832517  0.23735274  0.84073348    -0.80600
O37         O  0.78097728  0.25352568  0.67496778    -0.80600
C38         C  0.76858010  0.21994541  0.66709867     1.09100
C39         C  0.73311643  0.20402350  0.84524876     1.09000
C40         C  0.83047071  0.21178949  0.72605276     1.09100
C41         C  0.66030266  0.20898834  0.77144706     1.09000
O42         O  0.65852886  0.27523217  0.72520529    -0.80600
O43         O  0.83023472  0.25247406  0.79352941    -0.80700
O44         O  0.75559588  0.32417134  0.69812663    -0.80600
O45         O  0.74940579  0.30936617  0.82033269    -0.80600
O46         O  0.78827486  0.26005613  0.83459836    -0.80600
O47         O  0.71320739  0.28270847  0.67194742    -0.80600
O48         O  0.68800522  0.31701015  0.76431038    -0.80500
O49         O  0.81916191  0.30572322  0.76032067    -0.80600
Co50       Co  0.70188518  0.24036287  0.71041314     1.51500
Co51       Co  0.77819397  0.22742832  0.78642314     1.51700
Co52       Co  0.77826096  0.28081502  0.72670889     1.51600
Co53       Co  0.70606765  0.27656856  0.79981644     1.51500
O54         O  0.73848558  0.25589174  0.75595386    -1.42500
C55         C  0.66271447  0.30917115  0.73786795     1.09000
C56         C  0.84110940  0.28534257  0.78274433     1.09100
C57         C  0.73000831  0.31528522  0.67210595     1.09100
C58         C  0.77672519  0.29429382  0.84112029     1.09000
O59         O  0.70243936  0.73373097  0.19214996    -0.80600
O60         O  0.79138459  0.74827753  0.19033978    -0.80600
O61         O  0.71057237  0.81717514  0.24084211    -0.80600
O62         O  0.78481500  0.65345450  0.25575931    -0.80500
O63         O  0.76557166  0.82775437  0.20845566    -0.80700
O64         O  0.73795817  0.66281186  0.21080890    -0.80600
O65         O  0.82939550  0.71252243  0.23142099    -0.80600
O66         O  0.67223556  0.77501810  0.22884819    -0.80600
C67         C  0.67692189  0.75999472  0.19565376     1.09100
C68         C  0.81998232  0.72466274  0.19715025     1.09000
C69         C  0.73057788  0.83773852  0.21756082     1.09100
C70         C  0.76627802  0.64296659  0.22489633     1.09000
O71         O  0.71691543  0.67348266  0.28920934    -0.80600
O72         O  0.76929024  0.81286726  0.28466504    -0.80700
O73         O  0.66377089  0.73314055  0.28640258    -0.80600
O74         O  0.82095984  0.75006099  0.30584780    -0.80600
O75         O  0.82815986  0.78403190  0.25284957    -0.80600
O76         O  0.66006291  0.68841676  0.23837674    -0.80600
O77         O  0.76870269  0.68996392  0.32628572    -0.80500
O78         O  0.72053928  0.79705002  0.32023128    -0.80600
Co79       Co  0.71255683  0.70492858  0.24120729     1.51500
Co80       Co  0.77292160  0.77985735  0.23501570     1.51700
Co81       Co  0.71013010  0.76666330  0.27237239     1.51600
Co82       Co  0.79931386  0.70360624  0.27988974     1.51500
O83         O  0.75637583  0.73427777  0.25756672    -1.42500
C84         C  0.73656745  0.67203508  0.32112363     1.09000
C85         C  0.75022621  0.81733892  0.31549472     1.09100
C86         C  0.64511411  0.70599905  0.26747758     1.09100
C87         C  0.83901662  0.77516311  0.28729084     1.09000
C88         C  0.52916200  0.99815404  0.03571702     0.01800
C89         C  0.50104242  0.96912397  0.03619954     0.01800
C90         C  0.47380140  0.96501187  0.00448986     0.01800
C91         C  0.47539905  0.98826659  0.97135457     0.01800
C92         C  0.49931855  0.02096966  0.97386327     0.01800
C93         C  0.52675744  0.02544602  0.00574167     0.01800
C94         C  0.62676434  0.03612026  0.18930516     0.02700
C95         C  0.65136889  0.00365649  0.19077126    -0.13500
C96         C  0.64608929  0.97290356  0.16468831     0.00200
C97         C  0.61669549  0.97512297  0.13508940    -0.12000
C98         C  0.59225155  0.00780855  0.13205684     0.02700
C99         C  0.59685042  0.03746397  0.15995714    -0.11400
H100        H  0.67473367  0.00166383  0.21265604     0.08300
H101        H  0.61191074  0.95092803  0.11558056     0.05800
H102        H  0.57696327  0.06166994  0.15849930     0.05700
C103        C  0.63842302  0.14667199  0.04323661     0.02700
C104        C  0.61222287  0.11676792  0.03620992    -0.13500
C105        C  0.60986702  0.09823801  0.99944872     0.00200
C106        C  0.63500634  0.10947544  0.97030330    -0.12000
C107        C  0.66188355  0.13908578  0.97725820     0.02700
C108        C  0.66340373  0.15711349  0.01408003    -0.11400
H109        H  0.59469233  0.10761336  0.05981483     0.08300
H110        H  0.63282258  0.09575072  0.94188699     0.05800
H111        H  0.68486354  0.17893197  0.02071039     0.05700
C112        C  0.35690489  0.01347165  0.83039466     0.02700
C113        C  0.37863397  0.01777671  0.86526918    -0.13500
C114        C  0.39966084  0.98711839  0.88189951     0.00200
C115        C  0.39777854  0.95067107  0.86264356    -0.12000
C116        C  0.37521452  0.94556841  0.82712884     0.02700
C117        C  0.35502586  0.97770659  0.81184787    -0.11400
H118        H  0.37957946  0.04568810  0.87933025     0.08300
H119        H  0.41325881  0.92656693  0.87529624     0.05800
H120        H  0.33661253  0.97503904  0.78577037     0.05700
C121        C  0.46655267  0.14463464  0.86062645     0.02700
C122        C  0.49852019  0.15396139  0.83816618    -0.13500
C123        C  0.53402661  0.13379827  0.84131907     0.00200
C124        C  0.53746689  0.10331631  0.86714567    -0.12000
C125        C  0.50627897  0.09308809  0.89007458     0.02700
C126        C  0.47055497  0.11378980  0.88644941    -0.11400
H127        H  0.49590181  0.17734764  0.81808141     0.08300
H128        H  0.56480359  0.08749632  0.86962411     0.05800
H129        H  0.44592074  0.10615415  0.90336815     0.05700
C130        C  0.54394201  0.83441294  0.13635176     0.02700
C131        C  0.53874282  0.86055370  0.10620476    -0.13500
C132        C  0.50316295  0.88033648  0.10076831     0.00200
C133        C  0.47179285  0.87312176  0.12509085    -0.12000
C134        C  0.47627558  0.84647706  0.15528759     0.02700
C135        C  0.51315978  0.82898609  0.16159104    -0.11400
H136        H  0.56200833  0.86487944  0.08622698     0.08300
H137        H  0.44360560  0.88649570  0.11902748     0.05800
H138        H  0.51758550  0.80983532  0.18576146     0.05700
C139        C  0.33341769  0.88085558  0.03466213     0.02700
C140        C  0.31409911  0.86450804  0.00210813    -0.13500
C141        C  0.33236099  0.86289339  0.96640126     0.00200
C142        C  0.36879166  0.87957808  0.96248657    -0.12000
C143        C  0.38743612  0.89753811  0.99430544     0.02700
C144        C  0.36997351  0.89741195  0.03067571    -0.11400
H145        H  0.28680068  0.84973642  0.00537838     0.08300
H146        H  0.38270465  0.87829492  0.93464289     0.05800
H147        H  0.38553929  0.90793421  0.05651304     0.05700
C148        C  0.01736284  0.52773297  0.99425005     0.01800
C149        C  0.02715095  0.49626706  0.96990002     0.01800
C150        C  0.00983186  0.46017450  0.97504611     0.01800
C151        C  0.98084616  0.45543071  0.00297540     0.01800
C152        C  0.97148100  0.48645761  0.02805808     0.01800
C153        C  0.98936987  0.52249703  0.02325322     0.01800
C154        C  0.10762878  0.67194593  0.93129707     0.02700
C155        C  0.08130666  0.64104543  0.93232902    -0.13500
C156        C  0.07779903  0.61884436  0.96628195     0.00200
C157        C  0.10106239  0.62855225  0.99982147    -0.12000
C158        C  0.12712991  0.65924162  0.99960249     0.02700
C159        C  0.13090944  0.67945975  0.96507849    -0.11400
H160        H  0.06328639  0.63414469  0.90680892     0.08300
H161        H  0.09902367  0.61293831  0.02641475     0.05800
H162        H  0.15318368  0.70101262  0.96479920     0.05700
C163        C  0.14106440  0.53377640  0.85510975     0.02700
C164        C  0.11678744  0.52847085  0.88639547    -0.13500
C165        C  0.11697767  0.49317612  0.90561234     0.00200
C166        C  0.14272629  0.46391178  0.89388906    -0.12000
C167        C  0.16723009  0.46938719  0.86257963     0.02700
C168        C  0.16656028  0.50464521  0.84407969    -0.11400
H169        H  0.09826113  0.55187146  0.89580739     0.08300
H170        H  0.14231046  0.43645864  0.90788595     0.05800
H171        H  0.18634987  0.50970798  0.82081749     0.05700
C172        C  0.94891788  0.64765998  0.13337264     0.02700
C173        C  0.98476370  0.65922433  0.15116398    -0.13500
C174        C  0.01860903  0.63627155  0.14868056     0.00200
C175        C  0.01666046  0.60107252  0.12956412    -0.12000
C176        C  0.98218064  0.58975157  0.11043332     0.02700
C177        C  0.94841036  0.61292000  0.11193055    -0.11400
H178        H  0.98672088  0.68583698  0.16744193     0.08300
H179        H  0.04292741  0.58370989  0.12697852     0.05800
H180        H  0.92206650  0.60369744  0.09641787     0.05700
C181        C  0.86811021  0.44904752  0.15413695     0.02700
C182        C  0.84626220  0.47937086  0.16945135    -0.13500
C183        C  0.84390553  0.51477055  0.15104556     0.00200
C184        C  0.86465044  0.51992212  0.11690564    -0.12000
C185        C  0.88799940  0.49015194  0.10174035     0.02700
C186        C  0.88868236  0.45435583  0.12010028    -0.11400
H187        H  0.82957859  0.47483360  0.19515626     0.08300
H188        H  0.86376083  0.54743614  0.10298473     0.05800
H189        H  0.90450652  0.43040938  0.10771949     0.05700
C190        C  0.98604418  0.33852457  0.85084476     0.02700
C191        C  0.01982266  0.31578130  0.85288984    -0.13500
C192        C  0.05296067  0.32732923  0.87499094     0.00200
C193        C  0.05137924  0.36239494  0.89580069    -0.12000
C194        C  0.01755062  0.38570876  0.89320774     0.02700
C195        C  0.98533748  0.37374202  0.87037818    -0.11400
H196        H  0.02050043  0.28959709  0.83575023     0.08300
H197        H  0.07649528  0.37200899  0.91307880     0.05800
H198        H  0.95898712  0.39121867  0.86917349     0.05700
C199        C  0.87592720  0.31487227  0.04762845     0.02700
C200        C  0.85953134  0.30860025  0.01001581    -0.13500
C201        C  0.86342684  0.33495681  0.98031976     0.00200
C202        C  0.88980289  0.36491430  0.98621639    -0.12000
C203        C  0.91161833  0.36899583  0.02162513     0.02700
C204        C  0.90303050  0.34485825  0.05279555    -0.11400
H205        H  0.84220661  0.28354652  0.00377676     0.08300
H206        H  0.89201087  0.38554796  0.96350738     0.05800
H207        H  0.91672218  0.35028415  0.08111010     0.05700
C208        C  0.49915174  0.48858789  0.53942897     0.01800
C209        C  0.52899576  0.48700992  0.51152306     0.01800
C210        C  0.52614672  0.51056253  0.47816208     0.01800
C211        C  0.49254955  0.53403086  0.47228933     0.01800
C212        C  0.46625907  0.53968449  0.50274219     0.01800
C213        C  0.46881457  0.51664659  0.53612124     0.01800
C214        C  0.54114101  0.40432782  0.68324926     0.02700
C215        C  0.53563894  0.43189151  0.65489441    -0.13500
C216        C  0.49844927  0.43799505  0.63793762     0.00200
C217        C  0.46672596  0.41544977  0.64880296    -0.12000
C218        C  0.47260323  0.38783515  0.67785966     0.02700
C219        C  0.50971251  0.38326738  0.69520788    -0.11400
H220        H  0.56050020  0.44735164  0.64484773     0.08300
H221        H  0.43804796  0.41955468  0.63515943     0.05800
H222        H  0.51493391  0.36089309  0.71627891     0.05700
C223        C  0.31371091  0.62999131  0.45461047     0.02700
C224        C  0.34657055  0.60593661  0.45084036    -0.13500
C225        C  0.37501392  0.60336158  0.48121403     0.00200
C226        C  0.37152303  0.62763226  0.51422371    -0.12000
C227        C  0.33850926  0.65143346  0.51833949     0.02700
C228        C  0.30863970  0.64953250  0.48990232    -0.11400
H229        H  0.35069045  0.58992167  0.42407476     0.08300
H230        H  0.39379576  0.62794104  0.53707478     0.05800
H231        H  0.28150900  0.66477399  0.49464524     0.05700
C232        C  0.65603369  0.54306339  0.37265531     0.02700
C233        C  0.66682329  0.51107762  0.34991464    -0.13500
C234        C  0.64492622  0.47725837  0.34881634     0.00200
C235        C  0.61063117  0.47601574  0.37008561    -0.12000
C236        C  0.59922736  0.50722076  0.39363467     0.02700
C237        C  0.62207159  0.54066013  0.39475099    -0.11400
H238        H  0.69230123  0.51256777  0.33224001     0.08300
H239        H  0.59374773  0.45006137  0.36981655     0.05800
H240        H  0.61312198  0.56485903  0.41242449     0.05700
C241        C  0.44432138  0.61485598  0.32795861     0.02700
C242        C  0.45068615  0.59818574  0.36484993    -0.13500
C243        C  0.48734020  0.60170701  0.38488977     0.00200
C244        C  0.51677251  0.62263266  0.36824134    -0.12000
C245        C  0.51080006  0.63891105  0.33164152     0.02700
C246        C  0.47485789  0.63475158  0.31170632    -0.11400
H247        H  0.42705691  0.58355194  0.37819462     0.08300
H248        H  0.54490772  0.62538401  0.38342136     0.05800
H249        H  0.47006865  0.64885791  0.28412453     0.05700
C250        C  0.35926629  0.52510276  0.66867138     0.02700
C251        C  0.38581657  0.52566979  0.63781633    -0.13500
C252        C  0.38708354  0.49583017  0.60959951     0.00200
C253        C  0.36260122  0.46440388  0.61330382    -0.12000
C254        C  0.33711928  0.46170912  0.64416093     0.02700
C255        C  0.33492787  0.49263504  0.67090926    -0.11400
H256        H  0.40605697  0.54878988  0.63612452     0.08300
H257        H  0.36374064  0.44143713  0.59190326     0.05800
H258        H  0.31427183  0.49075647  0.69369254     0.05700
C259        C  0.66253062  0.37618257  0.53202975     0.02700
C260        C  0.66681046  0.35096488  0.50002962    -0.13500
C261        C  0.64266587  0.35311237  0.46621064     0.00200
C262        C  0.61309792  0.38119090  0.46478447    -0.12000
C263        C  0.60816126  0.40747346  0.49554770     0.02700
C264        C  0.63335830  0.40509950  0.52894980    -0.11400
H265        H  0.68904026  0.32907063  0.50139732     0.08300
H266        H  0.59332020  0.38259236  0.43962753     0.05800
H267        H  0.63049889  0.42569594  0.55231296     0.05700
C268        C  0.02468529  0.95507424  0.50980334     0.01800
C269        C  0.03097440  0.98894133  0.53144739     0.01800
C270        C  0.00365365  0.01943964  0.52754044     0.01800
C271        C  0.96939870  0.01582823  0.50321947     0.01800
C272        C  0.96222889  0.98130971  0.48242182     0.01800
C273        C  0.99065864  0.95167684  0.48544945     0.01800
C274        C  0.02944097  0.14593406  0.63741627     0.02700
C275        C  0.02665235  0.11332068  0.61354558    -0.13500
C276        C  0.99021598  0.09596550  0.60629606     0.00200
C277        C  0.95708849  0.11053181  0.62441513    -0.12000
C278        C  0.95985704  0.14292903  0.64851995     0.02700
C279        C  0.99604273  0.16066624  0.65461152    -0.11400
H280        H  0.05297614  0.10127756  0.60154410     0.08300
H281        H  0.92901222  0.09712077  0.61913292     0.05800
H282        H  0.99860870  0.18515332  0.67416950     0.05700
C283        C  0.18490878  0.04949272  0.61587438     0.02700
C284        C  0.19274881  0.01872143  0.64060987    -0.13500
C285        C  0.16974165  0.98596128  0.63907724     0.00200
C286        C  0.13698198  0.98455280  0.61338436    -0.12000
C287        C  0.12748162  0.01554019  0.58887235     0.02700
C288        C  0.15200728  0.04763984  0.59012924    -0.11400
H289        H  0.21681869  0.02023547  0.66179976     0.08300
H290        H  0.12030440  0.95859287  0.61164333     0.05800
H291        H  0.14543465  0.07116240  0.57087647     0.05700
C292        C  0.16078756  0.84584900  0.46203199     0.02700
C293        C  0.13589645  0.87810412  0.46273904    -0.13500
C294        C  0.11458682  0.88752110  0.49599386     0.00200
C295        C  0.11982956  0.86517021  0.52953500    -0.12000
C296        C  0.14580933  0.83352966  0.53044067     0.02700
C297        C  0.16571024  0.82404377  0.49614134    -0.11400
H298        H  0.13157013  0.89480619  0.43669446     0.08300
H299        H  0.10366618  0.87265132  0.55507673     0.05800
H300        H  0.18564098  0.79984226  0.49586356     0.05700
C301        C  0.84598497  0.13927264  0.54268051     0.02700
C302        C  0.84326900  0.15811889  0.50701113    -0.13500
C303        C  0.86009213  0.14251520  0.47374588     0.00200
C304        C  0.88086672  0.10785524  0.47643050    -0.12000
C305        C  0.88494469  0.08895287  0.51222491     0.02700
C306        C  0.86634222  0.10424523  0.54500105    -0.11400
H307        H  0.82670694  0.18460562  0.50481465     0.08300
H308        H  0.89363294  0.09558903  0.45062132     0.05800
H309        H  0.86910161  0.08979961  0.57256652     0.05700
C310        C  0.83762663  0.01772150  0.34677367     0.02700
C311        C  0.86757859  0.02188136  0.37570208    -0.13500
C312        C  0.87780058  0.99229552  0.40164761     0.00200
C313        C  0.85588730  0.95814683  0.39942342    -0.12000
C314        C  0.82509203  0.95335559  0.37123813     0.02700
C315        C  0.81724342  0.98299279  0.34479117    -0.11400
H316        H  0.88322297  0.04847159  0.37838531     0.08300
H317        H  0.86262546  0.93516768  0.41914551     0.05800
H318        H  0.79585729  0.97818350  0.32146637     0.05700
C319        C  0.04204216  0.85368394  0.34682704     0.02700
C320        C  0.00614427  0.83834028  0.33496662    -0.13500
C321        C  0.97239843  0.84930122  0.35369259     0.00200
C322        C  0.97415758  0.87546388  0.38444292    -0.12000
C323        C  0.01026814  0.89085518  0.39658936     0.02700
C324        C  0.04421905  0.88037430  0.37729537    -0.11400
H325        H  0.00452325  0.81750534  0.31130228     0.08300
H326        H  0.94730556  0.88439164  0.39783030     0.05800
H327        H  0.07226469  0.89193138  0.38669215     0.05700
O328        O  0.29760679  0.19070194  0.68125754    -0.80600
O329        O  0.23846756  0.30275596  0.68589653    -0.80600
O330        O  0.17360952  0.19944308  0.73976140    -0.80600
O331        O  0.34620602  0.30011165  0.77005542    -0.80500
O332        O  0.18397562  0.24306141  0.69602076    -0.80700
O333        O  0.33893972  0.26091240  0.71713014    -0.80600
O334        O  0.28774599  0.32005108  0.72480679    -0.80600
O335        O  0.23793192  0.18185197  0.70587729    -0.80600
C336        C  0.26359433  0.17541726  0.67941862     1.09100
C337        C  0.26782654  0.32359446  0.69341717     1.09000
C338        C  0.16472040  0.21463398  0.70765987     1.09100
C339        C  0.35846626  0.28705627  0.73762926     1.09000
O340        O  0.32609150  0.20868046  0.76623414    -0.80600
O341        O  0.17264396  0.27392881  0.77358296    -0.80700
O342        O  0.25025615  0.16168437  0.78449268    -0.80600
O343        O  0.27107741  0.32048547  0.80307511    -0.80600
O344        O  0.22157490  0.33200399  0.76070956    -0.80600
O345        O  0.30281319  0.17590117  0.75224029    -0.80600
O346        O  0.30934641  0.24971884  0.81204879    -0.80500
O347        O  0.19956600  0.22533082  0.80667185    -0.80600
Co348      Co  0.28793093  0.22673969  0.72203187     1.51500
Co349      Co  0.20713906  0.28557283  0.72988729     1.51700
Co350      Co  0.22655847  0.20588698  0.76030238     1.51600
Co351      Co  0.29562817  0.28235885  0.76804436     1.51500
O352        O  0.25108556  0.25453483  0.75472405    -1.42500
C353        C  0.33011428  0.22174865  0.80159414     1.09000
C354        C  0.17668872  0.25421246  0.80434019     1.09100
C355        C  0.28342055  0.15207710  0.77280049     1.09100
C356        C  0.24223360  0.34083689  0.79094409     1.09000
O357        O  0.77555479  0.17115751  0.28167446    -0.80600
O358        O  0.77019958  0.32791323  0.22198085    -0.80600
O359        O  0.80951115  0.23165349  0.20763196    -0.80600
O360        O  0.81279490  0.24458496  0.31795553    -0.80500
O361        O  0.76550762  0.26749586  0.17565897    -0.80700
O362        O  0.76218957  0.21458986  0.34010780    -0.80600
O363        O  0.81771859  0.30232946  0.25902529    -0.80600
O364        O  0.78516973  0.15610610  0.21970866    -0.80600
C365        C  0.78908032  0.14814181  0.25558689     1.09100
C366        C  0.80627445  0.32440115  0.23156633     1.09000
C367        C  0.79964648  0.25238795  0.17859961     1.09100
C368        C  0.79856440  0.22106096  0.34130957     1.09000
O369        O  0.69170833  0.24933388  0.30996575    -0.80600
O370        O  0.68853488  0.24915622  0.20049600    -0.80700
O371        O  0.71298227  0.17643808  0.24483215    -0.80600
O372        O  0.74782360  0.33524412  0.28793275    -0.80600
O373        O  0.69532524  0.31607060  0.25404566    -0.80600
O374        O  0.70174635  0.17024962  0.30777029    -0.80600
O375        O  0.73982910  0.28110181  0.34050906    -0.80500
O376        O  0.73351762  0.20708878  0.18298598    -0.80600
Co377      Co  0.73093846  0.21257559  0.29039922     1.51500
Co378      Co  0.72949628  0.28777635  0.21607058     1.51700
Co379      Co  0.76494423  0.20586893  0.23228232     1.51600
Co380      Co  0.77935576  0.28816760  0.29893590     1.51500
O381        O  0.75172314  0.25428782  0.25904698    -1.42500
C382        C  0.70388813  0.27161029  0.33718996     1.09000
C383        C  0.69901724  0.22051230  0.17959139     1.09100
C384        C  0.69410288  0.16106431  0.27241156     1.09100
C385        C  0.71217298  0.34017717  0.27730898     1.09000
O386        O  0.29378827  0.67702716  0.21952527    -0.80600
O387        O  0.19356357  0.68509079  0.21695910    -0.80600
O388        O  0.26417745  0.71025322  0.30831609    -0.80600
O389        O  0.21540880  0.75277433  0.14058953    -0.80500
O390        O  0.20603266  0.68041380  0.29850196    -0.80700
O391        O  0.23985161  0.69738448  0.15701421    -0.80600
O392        O  0.16430400  0.73724348  0.19373760    -0.80600
O393        O  0.32386339  0.71390607  0.26289039    -0.80600
C394        C  0.31695242  0.68097915  0.24905810     1.09100
C395        C  0.16549232  0.70110300  0.19768951     1.09000
C396        C  0.23873459  0.68450408  0.31738322     1.09100
C397        C  0.21853821  0.71726050  0.13391578     1.09000
O398        O  0.28185782  0.77000819  0.15324975    -0.80600
O399        O  0.21320001  0.75350806  0.30796192    -0.80700
O400        O  0.31499425  0.79401084  0.24524979    -0.80600
O401        O  0.18682935  0.80153872  0.24053041    -0.80600
O402        O  0.16476202  0.74712726  0.26288137    -0.80600
O403        O  0.33390649  0.74816655  0.20538266    -0.80600
O404        O  0.24717010  0.81420364  0.18525837    -0.80500
O405        O  0.25427200  0.79765712  0.29885644    -0.80600
Co406      Co  0.28404793  0.72337482  0.18653189     1.51500
Co407      Co  0.21485107  0.71720141  0.26043168     1.51700
Co408      Co  0.28573113  0.75518292  0.27469361     1.51600
Co409      Co  0.20648179  0.77615648  0.19318459     1.51500
O410        O  0.24728442  0.74700138  0.22663615    -1.42500
C411        C  0.27294101  0.80491996  0.16079283     1.09000
C412        C  0.22714858  0.78506939  0.31850558     1.09100
C413        C  0.33943165  0.78074515  0.22133534     1.09100
C414        C  0.16228797  0.78343573  0.26008872     1.09000
C415        C  0.08570062  0.79987610  0.33366957    -0.13800
C416        C  0.07698388  0.83853935  0.32902588     0.08400
C417        C  0.09784774  0.86031359  0.30319432    -0.13800
C418        C  0.12638785  0.84275779  0.28071114    -0.13800
C419        C  0.13366945  0.80341988  0.28395129     0.08400
C420        C  0.11363709  0.78239944  0.31122973    -0.13800
H421        H  0.06962921  0.78288846  0.35358754     0.12400
H422        H  0.09082871  0.89023888  0.29924592     0.12400
H423        H  0.14182343  0.85952813  0.26016450     0.12400
H424        H  0.11914805  0.75218128  0.31505940     0.12400
C425        C  0.85455896  0.07729527  0.30890078    -0.13800
C426        C  0.82721487  0.04941034  0.31878406     0.08400
C427        C  0.78906060  0.05270765  0.30222204    -0.13800
C428        C  0.77853411  0.08280960  0.27765484    -0.13800
C429        C  0.80517544  0.11133587  0.26955938     0.08400
C430        C  0.84342922  0.10825535  0.28521802    -0.13800
H431        H  0.88441768  0.07590296  0.32007644     0.12400
H432        H  0.76639302  0.03313602  0.30949815     0.12400
H433        H  0.74856913  0.08524666  0.26694432     0.12400
H434        H  0.86418408  0.13064565  0.28056849     0.12400
C435        C  0.83401599  0.14120875  0.40528666    -0.13800
C436        C  0.85274147  0.16137270  0.43594914     0.08400
C437        C  0.85885599  0.20077495  0.43220860    -0.13800
C438        C  0.84445257  0.22004986  0.39924400    -0.13800
C439        C  0.82298322  0.20027839  0.37013375     0.08400
C440        C  0.81866611  0.16062256  0.37301302    -0.13800
H441        H  0.82856154  0.11097127  0.40766739     0.12400
H442        H  0.87308972  0.21689022  0.45566693     0.12400
H443        H  0.84740720  0.25072663  0.39794138     0.12400
H444        H  0.80150823  0.14493622  0.35128578     0.12400
C445        C  0.17254734  0.79452395  0.41254977    -0.13800
C446        C  0.17852197  0.83229728  0.42484440     0.08400
C447        C  0.20051628  0.85599513  0.40113742    -0.13800
C448        C  0.21708336  0.84151811  0.36653267    -0.13800
C449        C  0.21097611  0.80337464  0.35453702     0.08400
C450        C  0.18801584  0.78054040  0.37809062    -0.13800
H451        H  0.15524052  0.77569254  0.42950337     0.12400
H452        H  0.20540717  0.88544327  0.40972650     0.12400
H453        H  0.23424480  0.86007321  0.34918380     0.12400
H454        H  0.18190169  0.75117415  0.37004937     0.12400
C455        C  0.27039702  0.11272547  0.64557107    -0.13800
C456        C  0.25146080  0.14821035  0.64844299     0.08400
C457        C  0.21363633  0.15246249  0.63182821    -0.13800
C458        C  0.19289451  0.12074963  0.61778935    -0.13800
C459        C  0.20988957  0.08414212  0.61964803     0.08400
C460        C  0.24987527  0.08096907  0.63088286    -0.13800
H461        H  0.29940549  0.10864786  0.65849929     0.12400
H462        H  0.19855114  0.17972625  0.63369036     0.12400
H463        H  0.16243573  0.12459962  0.60916944     0.12400
H464        H  0.26445804  0.05339337  0.63126142     0.12400
C465        C  0.07414884  0.20165495  0.64367677    -0.13800
C466        C  0.06753801  0.16252180  0.64833073     0.08400
C467        C  0.09530884  0.14020696  0.66856304    -0.13800
C468        C  0.12793965  0.15722774  0.68628845    -0.13800
C469        C  0.13374130  0.19669953  0.68337764     0.08400
C470        C  0.10747668  0.21861299  0.66069086    -0.13800
H471        H  0.05273720  0.21924611  0.62824172     0.12400
H472        H  0.09050107  0.11007212  0.67270317     0.12400
H473        H  0.14810602  0.13969350  0.70336993     0.12400
H474        H  0.11139804  0.24907509  0.65823813     0.12400
C475        C  0.98823984  0.91982799  0.45755154    -0.16900
C476        C  0.01300927  0.91893922  0.42832208    -0.32000
H477        H  0.96483163  0.89946587  0.45955957     0.12200
H478        H  0.03621182  0.93981291  0.42770583     0.12700
C479        C  0.91246567  0.99869288  0.42926180    -0.16900
C480        C  0.92544037  0.97483657  0.45757481    -0.32000
H481        H  0.92916633  0.02433241  0.42504028     0.12200
H482        H  0.91069929  0.94807758  0.46137084     0.12700
C483        C  0.90910160  0.05360236  0.51591352    -0.16900
C484        C  0.94306509  0.04946808  0.49771473    -0.32000
H485        H  0.90055220  0.03193650  0.53606958     0.12200
H486        H  0.95362980  0.07250269  0.48032590     0.12700
C487        C  0.98585227  0.06192259  0.58097211    -0.16900
C488        C  0.00941229  0.05422044  0.55154844    -0.32000
H489        H  0.96153792  0.04307787  0.58572378     0.12200
H490        H  0.03336273  0.07277592  0.54516040     0.12700
C491        C  0.09335550  0.01498867  0.56043373    -0.16900
C492        C  0.06374820  0.99001875  0.56129453    -0.32000
H493        H  0.09252686  0.03612550  0.53767878     0.12200
H494        H  0.06365768  0.96817015  0.58315640     0.12700
C495        C  0.05296163  0.92217399  0.51348372    -0.16900
C496        C  0.08722104  0.92114551  0.49512029    -0.32000
H497        H  0.04376684  0.89747526  0.52925849     0.12200
H498        H  0.09421793  0.94488864  0.47678688     0.12700
C499        C  0.66855114  0.29128407  0.43705201    -0.13800
C500        C  0.64986546  0.32709025  0.43198899     0.08400
C501        C  0.64147570  0.33903484  0.39358803    -0.13800
C502        C  0.65452254  0.31754797  0.36183393    -0.13800
C503        C  0.67789289  0.28509970  0.36769039     0.08400
C504        C  0.68347309  0.27118737  0.40534298    -0.13800
H505        H  0.67357484  0.27944752  0.46561742     0.12400
H506        H  0.62707370  0.36606140  0.38774782     0.12400
H507        H  0.64878104  0.32763013  0.33281937     0.12400
H508        H  0.70116959  0.24580296  0.41041394     0.12400
C509        C  0.33212002  0.38965261  0.64111429    -0.13800
C510        C  0.31480236  0.42547189  0.64953338     0.08400
C511        C  0.27727594  0.42580797  0.66515940    -0.13800
C512        C  0.25921992  0.39156369  0.67485610    -0.13800
C513        C  0.27800951  0.35615235  0.66893863     0.08400
C514        C  0.31386156  0.35559591  0.65058821    -0.13800
H515        H  0.36102056  0.38778190  0.62943107     0.12400
H516        H  0.26244584  0.45256007  0.67132316     0.12400
H517        H  0.23186769  0.39291880  0.68970067     0.12400
H518        H  0.32890815  0.32875310  0.64593488     0.12400
C519        C  0.37380246  0.63269208  0.32859180    -0.13800
C520        C  0.40504096  0.61733222  0.30810539     0.08400
C521        C  0.40099152  0.61392131  0.26719588    -0.13800
C522        C  0.36840846  0.62978025  0.24706929    -0.13800
C523        C  0.33956996  0.64948351  0.26757721     0.08400
C524        C  0.34187836  0.64910105  0.30852497    -0.13800
H525        H  0.37619524  0.63640507  0.35990196     0.12400
H526        H  0.42478504  0.60224153  0.25061714     0.12400
H527        H  0.36817647  0.63057948  0.21561746     0.12400
H528        H  0.32142055  0.66559894  0.32520409     0.12400
C529        C  0.63693905  0.41815202  0.30455568    -0.13800
C530        C  0.66048819  0.44253081  0.32830893     0.08400
C531        C  0.70023247  0.43342623  0.33328813    -0.13800
C532        C  0.71610098  0.40097608  0.31585900    -0.13800
C533        C  0.69301506  0.37593653  0.29249749     0.08400
C534        C  0.65320089  0.38543565  0.28625553    -0.13800
H535        H  0.60612335  0.42450172  0.30002097     0.12400
H536        H  0.71920223  0.45108013  0.35165425     0.12400
H537        H  0.74692039  0.39537396  0.32145865     0.12400
H538        H  0.63452425  0.36703759  0.26842700     0.12400
C539        C  0.27252533  0.67740439  0.41889762    -0.13800
C540        C  0.28734203  0.63984333  0.42098663     0.08400
C541        C  0.27947344  0.61443648  0.38955655    -0.13800
C542        C  0.25917680  0.62735299  0.35601243    -0.13800
C543        C  0.24658318  0.66553039  0.35410520     0.08400
C544        C  0.25203806  0.68975107  0.38625599    -0.13800
H545        H  0.27912188  0.69865743  0.44123171     0.12400
H546        H  0.29036463  0.58533881  0.39016549     0.12400
H547        H  0.25615885  0.60866786  0.33074046     0.12400
H548        H  0.24385883  0.71962562  0.38469869     0.12400
C549        C  0.42292177  0.33588339  0.66638219    -0.13800
C550        C  0.44173378  0.36254813  0.69135277     0.08400
C551        C  0.43645497  0.36049646  0.73144704    -0.13800
C552        C  0.41225907  0.33327242  0.74637909    -0.13800
C553        C  0.39178292  0.30757278  0.72164671     0.08400
C554        C  0.39824789  0.30833945  0.68150110    -0.13800
H555        H  0.42776397  0.33604278  0.63545818     0.12400
H556        H  0.45153906  0.37997042  0.75142348     0.12400
H557        H  0.40845068  0.33341099  0.77749845     0.12400
H558        H  0.38312989  0.28874035  0.66174445     0.12400
C559        C  0.43836576  0.57243693  0.50218279    -0.16900
C560        C  0.40680446  0.57409120  0.47793091    -0.32000
H561        H  0.44334825  0.59387488  0.52468915     0.12200
H562        H  0.40317915  0.55182060  0.45579000     0.12700
C563        C  0.43909221  0.52232385  0.56695669    -0.16900
C564        C  0.41488499  0.49428827  0.57678825    -0.32000
H565        H  0.43725150  0.55019777  0.58088852     0.12200
H566        H  0.41656917  0.46766296  0.56022377     0.12700
C567        C  0.48321717  0.55081681  0.43365869    -0.16900
C568        C  0.49604137  0.58508409  0.42372509    -0.32000
H569        H  0.46488895  0.53440531  0.41336416     0.12200
H570        H  0.51591938  0.60014813  0.44376091     0.12700
C571        C  0.56115923  0.51590428  0.45382623    -0.16900
C572        C  0.56299500  0.50414683  0.41643321    -0.32000
H573        H  0.58710128  0.52767266  0.46830061     0.12200
H574        H  0.53829325  0.48900939  0.40323953     0.12700
C575        C  0.56354653  0.46090243  0.51836885    -0.16900
C576        C  0.57604364  0.43656411  0.49061816    -0.32000
H577        H  0.57614158  0.45971953  0.54764213     0.12200
H578        H  0.56041532  0.43686379  0.46260445     0.12700
C579        C  0.49410368  0.46760978  0.60832790    -0.16900
C580        C  0.49967896  0.45936427  0.57067075    -0.32000
H581        H  0.49040033  0.49692011  0.61825646     0.12200
H582        H  0.50696883  0.43009438  0.56252831     0.12700
C583        C  0.86355533  0.27134409  0.14897368    -0.13800
C584        C  0.82491282  0.25828882  0.14511358     0.08400
C585        C  0.80590422  0.25968463  0.10851315    -0.13800
C586        C  0.82289000  0.27715503  0.07755623    -0.13800
C587        C  0.86076181  0.29249774  0.08101873     0.08400
C588        C  0.88141780  0.28823123  0.11708651    -0.13800
H589        H  0.87869004  0.27123957  0.17711333     0.12400
H590        H  0.77603387  0.25006391  0.10460649     0.12400
H591        H  0.80449691  0.28061190  0.05171269     0.12400
H592        H  0.91066348  0.29917585  0.12127270     0.12400
C593        C  0.08905024  0.26499130  0.86445656    -0.13800
C594        C  0.08992567  0.30486223  0.87130845     0.08400
C595        C  0.12508921  0.32399020  0.86626081    -0.13800
C596        C  0.15634198  0.30498185  0.84931028    -0.13800
C597        C  0.15307233  0.26679832  0.83698327     0.08400
C598        C  0.12030941  0.24614525  0.84687119    -0.13800
H599        H  0.06280719  0.24907608  0.86924780     0.12400
H600        H  0.12712762  0.35450247  0.87114751     0.12400
H601        H  0.18143479  0.32122900  0.84174447     0.12400
H602        H  0.11710677  0.21670553  0.83734890     0.12400
C603        C  0.87393756  0.40486887  0.21085345    -0.13800
C604        C  0.86408299  0.41095339  0.17133124     0.08400
C605        C  0.84170101  0.38379752  0.15076007    -0.13800
C606        C  0.82563144  0.35355502  0.17027483    -0.13800
C607        C  0.83314449  0.34859976  0.21035620     0.08400
C608        C  0.85905642  0.37342934  0.23015449    -0.13800
H609        H  0.89072377  0.42593253  0.22736346     0.12400
H610        H  0.83317274  0.38822027  0.12054076     0.12400
H611        H  0.80481210  0.33563056  0.15451378     0.12400
H612        H  0.86452499  0.37084463  0.26118197     0.12400
C613        C  0.08265465  0.63074000  0.18641306    -0.13800
C614        C  0.05720429  0.65103535  0.16102643     0.08400
C615        C  0.06985725  0.68459295  0.14446367    -0.13800
C616        C  0.10657692  0.69874892  0.15432729    -0.13800
C617        C  0.13134138  0.68012721  0.18167699     0.08400
C618        C  0.11953637  0.64542491  0.19701226    -0.13800
H619        H  0.07353365  0.60419345  0.19873316     0.12400
H620        H  0.05123615  0.69987813  0.12376303     0.12400
H621        H  0.11500387  0.72529404  0.14148804     0.12400
H622        H  0.13792822  0.63065632  0.21825929     0.12400
C623        C  0.21201526  0.41155318  0.86886344    -0.13800
C624        C  0.19068690  0.43786170  0.84576824     0.08400
C625        C  0.19109658  0.43397037  0.80518124    -0.13800
C626        C  0.21121433  0.40417464  0.78794890    -0.13800
C627        C  0.23076183  0.37659252  0.81064339     0.08400
C628        C  0.23226803  0.38107111  0.85130262    -0.13800
H629        H  0.21239939  0.41418536  0.90025834     0.12400
H630        H  0.17448343  0.45320961  0.78646414     0.12400
H631        H  0.20958752  0.40156649  0.75653781     0.12400
H632        H  0.24683776  0.35987374  0.86936156     0.12400
C633        C  0.15188985  0.71166391  0.04372189    -0.13800
C634        C  0.14961504  0.67237316  0.03545397     0.08400
C635        C  0.16996051  0.64706298  0.06060872    -0.13800
C636        C  0.19289417  0.66107812  0.09255604    -0.13800
C637        C  0.19567415  0.70062987  0.10001134     0.08400
C638        C  0.17450321  0.72549816  0.07520817    -0.13800
H639        H  0.13604555  0.73199526  0.02559805     0.12400
H640        H  0.16881871  0.61659762  0.05508967     0.12400
H641        H  0.20833307  0.64108221  0.11135431     0.12400
H642        H  0.17526799  0.75608237  0.08007029     0.12400
C643        C  0.05422316  0.50171268  0.93784151    -0.16900
C644        C  0.09025553  0.48626016  0.93768054    -0.32000
H645        H  0.04367586  0.51879885  0.91360539     0.12200
H646        H  0.09969358  0.46716714  0.96081554     0.12700
C647        C  0.04206390  0.56339076  0.99588622    -0.16900
C648        C  0.05019563  0.58539420  0.96506518    -0.32000
H649        H  0.05337513  0.57139644  0.02456389     0.12200
H650        H  0.03580543  0.57873132  0.93727958     0.12700
C651        C  0.97872736  0.55564409  0.04821610    -0.16900
C652        C  0.98360205  0.55458551  0.08690393    -0.32000
H653        H  0.97170104  0.58263295  0.03434875     0.12200
H654        H  0.99561484  0.52903321  0.10047146     0.12700
C655        C  0.94621447  0.47986485  0.06171381    -0.16900
C656        C  0.91123657  0.49688710  0.06663775    -0.32000
H657        H  0.95833060  0.46158687  0.08430903     0.12200
H658        H  0.90052317  0.51758737  0.04555649     0.12700
C659        C  0.95492070  0.42106498  0.99866842    -0.16900
C660        C  0.94121779  0.39996521  0.02778345    -0.32000
H661        H  0.94722678  0.41309418  0.96888713     0.12200
H662        H  0.95264712  0.40463900  0.05713140     0.12700
C663        C  0.02270062  0.42609867  0.95225442    -0.16900
C664        C  0.01428361  0.42270493  0.91410970    -0.32000
H665        H  0.03369982  0.40145122  0.96814419     0.12200
H666        H  0.99896450  0.44600994  0.89944755     0.12700
C667        C  0.28267077  0.87964741  0.08540777    -0.13800
C668        C  0.32066267  0.87117872  0.07346240     0.08400
C669        C  0.34460456  0.84635335  0.09524138    -0.13800
C670        C  0.32948875  0.82690673  0.12586941    -0.13800
C671        C  0.29096090  0.83354553  0.13689896     0.08400
C672        C  0.26808017  0.86139505  0.11770255    -0.13800
H673        H  0.26370346  0.89839664  0.06839304     0.12400
H674        H  0.37367529  0.83884042  0.08596510     0.12400
H675        H  0.34696755  0.80424936  0.13874039     0.12400
H676        H  0.23788969  0.86610149  0.12507237     0.12400
C677        C  0.41096882  0.85586038  0.18878718    -0.13800
C678        C  0.44215090  0.83216183  0.17683669     0.08400
C679        C  0.44020834  0.79291904  0.18419962    -0.13800
C680        C  0.40807093  0.77753069  0.20159223    -0.13800
C681        C  0.37612013  0.80050965  0.21198640     0.08400
C682        C  0.37833308  0.84018989  0.20668085    -0.13800
H683        H  0.41147226  0.88622664  0.18363375     0.12400
H684        H  0.46286929  0.77338379  0.17483616     0.12400
H685        H  0.40745085  0.74690015  0.20523648     0.12400
H686        H  0.35388545  0.85856708  0.21383699     0.12400
C687        C  0.35881540  0.16817551  0.84148558    -0.13800
C688        C  0.36092374  0.20548642  0.82771930     0.08400
C689        C  0.39629200  0.22486764  0.83228445    -0.13800
C690        C  0.42988945  0.20595165  0.84646141    -0.13800
C691        C  0.42913426  0.16678606  0.85520804     0.08400
C692        C  0.39269435  0.14862363  0.85445040    -0.13800
H693        H  0.33126236  0.15376973  0.84101918     0.12400
H694        H  0.39857621  0.25391349  0.82239116     0.12400
H695        H  0.45699560  0.22152611  0.84839043     0.12400
H696        H  0.39058802  0.11879149  0.86163392     0.12400
C697        C  0.30071186  0.05975472  0.82766693    -0.13800
C698        C  0.33638577  0.04693467  0.81319916     0.08400
C699        C  0.35353452  0.06745988  0.78368072    -0.13800
C700        C  0.33595866  0.10115550  0.76974512    -0.13800
C701        C  0.30076584  0.11478089  0.78498334     0.08400
C702        C  0.28286611  0.09311503  0.81344760    -0.13800
H703        H  0.28704015  0.04426627  0.85043745     0.12400
H704        H  0.38110486  0.05794033  0.77220636     0.12400
H705        H  0.35030814  0.11695608  0.74767145     0.12400
H706        H  0.25567068  0.10264284  0.82574659     0.12400
C707        C  0.67743477  0.16182281  0.14489884    -0.13800
C708        C  0.67316264  0.20154853  0.15018999     0.08400
C709        C  0.65171098  0.22239776  0.12214044    -0.13800
C710        C  0.63758008  0.20404050  0.08794809    -0.13800
C711        C  0.64370127  0.16456186  0.08219179     0.08400
C712        C  0.66214105  0.14340872  0.11171026    -0.13800
H713        H  0.69475872  0.14520055  0.16556919     0.12400
H714        H  0.64900125  0.25312116  0.12497494     0.12400
H715        H  0.62392753  0.22090222  0.06504011     0.12400
H716        H  0.66772953  0.11314220  0.10758926     0.12400
C717        C  0.62688303  0.10680139  0.20510560    -0.13800
C718        C  0.63421009  0.06910627  0.21698856     0.08400
C719        C  0.65262914  0.06374538  0.25397501    -0.13800
C720        C  0.66817647  0.09476444  0.27548314    -0.13800
C721        C  0.66520457  0.13168435  0.26060911     0.08400
C722        C  0.64185869  0.13763544  0.22693046    -0.13800
H723        H  0.61253184  0.11271256  0.17734919     0.12400
H724        H  0.65712717  0.03541499  0.26541993     0.12400
H725        H  0.68558883  0.08940947  0.30173726     0.12400
H726        H  0.63825608  0.16610832  0.21555374     0.12400
C727        C  0.42164446  0.99577675  0.91983918    -0.16900
C728        C  0.45349419  0.97693149  0.93398792    -0.32000
H729        H  0.41219591  0.02081176  0.93621514     0.12200
H730        H  0.46398838  0.95190742  0.91839563     0.12700
C731        C  0.43766279  0.94443738  0.01112034    -0.16900
C732        C  0.42563316  0.91504999  0.98891327    -0.32000
H733        H  0.42038800  0.95508854  0.03489543     0.12200
H734        H  0.44312577  0.90524889  0.96488400     0.12700
C735        C  0.58280555  0.06596361  0.99108987    -0.16900
C736        C  0.55023087  0.06050997  0.01084611    -0.32000
H737        H  0.59006718  0.04571748  0.96811187     0.12200
H738        H  0.54179723  0.08029202  0.03368770     0.12700
C739        C  0.51295590  0.06045712  0.91699659    -0.16900
C740        C  0.49060152  0.05308510  0.94714366    -0.32000
H741        H  0.53845612  0.04228444  0.91272965     0.12200
H742        H  0.46521141  0.07064941  0.95317446     0.12700
C743        C  0.49985400  0.94358348  0.07061289    -0.16900
C744        C  0.49835137  0.90544637  0.06682400    -0.32000
H745        H  0.50323193  0.95610411  0.09958268     0.12200
H746        H  0.49844390  0.89227809  0.03803259     0.12700
C747        C  0.56285053  0.99798850  0.06488829    -0.16900
C748        C  0.55977099  0.01065013  0.10191510    -0.32000
H749        H  0.59052530  0.98630739  0.05545878     0.12200
H750        H  0.53264960  0.02446483  0.11019367     0.12700
C751        C  0.74340259  0.88378369  0.34204108    -0.13800
C752        C  0.76324256  0.84852004  0.34262202     0.08400
C753        C  0.80153536  0.84738463  0.35871811    -0.13800
C754        C  0.82090199  0.88098210  0.37061637    -0.13800
C755        C  0.80231056  0.91682925  0.36681082     0.08400
C756        C  0.76253194  0.91742377  0.35429124    -0.13800
H757        H  0.71422067  0.88582416  0.32900839     0.12400
H758        H  0.81743738  0.82061419  0.35951530     0.12400
H759        H  0.85134231  0.87898922  0.37998866     0.12400
H760        H  0.74674994  0.94427591  0.35178600     0.12400
C761        C  0.67097982  0.87936628  0.21163694    -0.13800
C762        C  0.71026830  0.87262316  0.20202092     0.08400
C763        C  0.72780174  0.89848781  0.17727728    -0.13800
C764        C  0.70663304  0.93062339  0.16341775    -0.13800
C765        C  0.66742952  0.93674693  0.17329897     0.08400
C766        C  0.64992195  0.91065587  0.19727908    -0.13800
H767        H  0.65601230  0.86026313  0.23036093     0.12400
H768        H  0.75781592  0.89421371  0.16915900     0.12400
H769        H  0.72097438  0.95101777  0.14560451     0.12400
H770        H  0.62008783  0.91520725  0.20597174     0.12400
C771        C  0.88080645  0.73021388  0.16066049    -0.13800
C772        C  0.84582710  0.71103181  0.16632560     0.08400
C773        C  0.84317972  0.67277461  0.15443386    -0.13800
C774        C  0.87587725  0.65263506  0.14136960    -0.13800
C775        C  0.91220399  0.67073988  0.13909080     0.08400
C776        C  0.91345926  0.71046701  0.14656764    -0.13800
H777        H  0.88396036  0.75960306  0.17037288     0.12400
H778        H  0.81666859  0.65761498  0.15889881     0.12400
H779        H  0.87317724  0.62223928  0.13619347     0.12400
H780        H  0.94027884  0.72601515  0.14382659     0.12400
C781        C  0.88688141  0.82754287  0.28805784    -0.13800
C782        C  0.87151762  0.79572134  0.30619782     0.08400
C783        C  0.88750585  0.78390728  0.34222639    -0.13800
C784        C  0.91938203  0.80293340  0.35913566    -0.13800
C785        C  0.93539358  0.83360364  0.33997280     0.08400
C786        C  0.91880298  0.84627452  0.30482895    -0.13800
H787        H  0.87475796  0.83754219  0.26053951     0.12400
H788        H  0.87590788  0.75961616  0.35686037     0.12400
H789        H  0.93251708  0.79288438  0.38622503     0.12400
H790        H  0.93136844  0.86989896  0.28987612     0.12400
C791        C  0.68128315  0.64738497  0.35786753    -0.13800
C792        C  0.72125377  0.64510834  0.34970651     0.08400
C793        C  0.74095961  0.61032563  0.35625608    -0.13800
C794        C  0.72033622  0.57780017  0.36686850    -0.13800
C795        C  0.67939086  0.57915108  0.37091628     0.08400
C796        C  0.66058254  0.61496725  0.36832573    -0.13800
H797        H  0.66527569  0.67362898  0.35250820     0.12400
H798        H  0.77145145  0.60724378  0.34928231     0.12400
H799        H  0.73613304  0.55097168  0.36948187     0.12400
H800        H  0.62924639  0.61743378  0.37104951     0.12400
C801        C  0.77300906  0.59846414  0.16631606    -0.13800
C802        C  0.78009942  0.60688966  0.20606644     0.08400
C803        C  0.80601999  0.58306233  0.22741081    -0.13800
C804        C  0.82615757  0.55335609  0.20934925    -0.13800
C805        C  0.82112752  0.54631623  0.16929492     0.08400
C806        C  0.79392174  0.56878472  0.14791370    -0.13800
H807        H  0.75333815  0.61628257  0.14903703     0.12400
H808        H  0.81198131  0.58821262  0.25815115     0.12400
H809        H  0.84673939  0.53649307  0.22665871     0.12400
H810        H  0.78905741  0.56352003  0.11704875     0.12400
C811        C  0.61276593  0.75317894  0.16389681    -0.13800
C812        C  0.64906038  0.77118560  0.16454029     0.08400
C813        C  0.65153299  0.80767410  0.14874979    -0.13800
C814        C  0.61754574  0.82780063  0.13722750    -0.13800
C815        C  0.58063065  0.81137868  0.14108238     0.08400
C816        C  0.57889366  0.77300376  0.15220920    -0.13800
H817        H  0.60999823  0.72530486  0.17662115     0.12400
H818        H  0.67932428  0.82194195  0.14880897     0.12400
H819        H  0.62002032  0.85711804  0.12828895     0.12400
H820        H  0.55104388  0.75900844  0.15422502     0.12400
C821        C  0.59665345  0.70337788  0.31959685    -0.13800
C822        C  0.60770376  0.69318662  0.28184935     0.08400
C823        C  0.58431028  0.66818256  0.25927704    -0.13800
C824        C  0.55177146  0.65172103  0.27507175    -0.13800
C825        C  0.54246028  0.65970839  0.31377475     0.08400
C826        C  0.56454296  0.68635704  0.33564029    -0.13800
H827        H  0.61390382  0.72304339  0.33745378     0.12400
H828        H  0.59185273  0.66039840  0.22986463     0.12400
H829        H  0.53494589  0.63138206  0.25763775     0.12400
H830        H  0.55735366  0.69344080  0.36532717     0.12400
C831        C  0.89339608  0.33485846  0.78791855    -0.13800
C832        C  0.87986474  0.29844626  0.79660580     0.08400
C833        C  0.90305955  0.27453099  0.82059850    -0.13800
C834        C  0.93811048  0.28734340  0.83711520    -0.13800
C835        C  0.95073028  0.32434158  0.83008285     0.08400
C836        C  0.92850896  0.34788116  0.80491470    -0.13800
H837        H  0.87622090  0.35367689  0.76926123     0.12400
H838        H  0.89367298  0.24614276  0.82761012     0.12400
H839        H  0.95468071  0.26879873  0.85660954     0.12400
H840        H  0.93809349  0.37642731  0.79885240     0.12400
C841        C  0.86803637  0.15271285  0.70650647    -0.13800
C842        C  0.86289793  0.19246078  0.70665418     0.08400
C843        C  0.88883098  0.21506587  0.68646991    -0.13800
C844        C  0.91936858  0.19858405  0.66678313    -0.13800
C845        C  0.92522826  0.15908992  0.66712989     0.08400
C846        C  0.89911554  0.13603163  0.68664485    -0.13800
H847        H  0.84816625  0.13474427  0.72151533     0.12400
H848        H  0.88569871  0.24583733  0.68580942     0.12400
H849        H  0.93867760  0.21685439  0.65139115     0.12400
H850        H  0.90331017  0.10538002  0.68725214     0.12400
C851        C  0.71185541  0.20806303  0.91289179    -0.13800
C852        C  0.72392268  0.18481048  0.88183493     0.08400
C853        C  0.72029647  0.14505363  0.88458543    -0.13800
C854        C  0.70126095  0.12952519  0.91625322    -0.13800
C855        C  0.68631375  0.15355388  0.94571832     0.08400
C856        C  0.69308583  0.19285311  0.94399605    -0.13800
H857        H  0.71448243  0.23874077  0.91199228     0.12400
H858        H  0.72931837  0.12643808  0.86104588     0.12400
H859        H  0.69721237  0.09898016  0.91706343     0.12400
H860        H  0.68176170  0.21256145  0.96548703     0.12400
C861        C  0.83026127  0.33245208  0.87341759    -0.13800
C862        C  0.79403194  0.31457811  0.87524137     0.08400
C863        C  0.77843979  0.30863174  0.91164515    -0.13800
C864        C  0.80015117  0.31736083  0.94565546    -0.13800
C865        C  0.83850001  0.33128562  0.94397799     0.08400
C866        C  0.85270667  0.34021586  0.90738491    -0.13800
H867        H  0.84174475  0.33920063  0.84575395     0.12400
H868        H  0.75023613  0.29544849  0.91377095     0.12400
H869        H  0.78739115  0.31177340  0.97331762     0.12400
H870        H  0.88174349  0.35154947  0.90476438     0.12400
C871        C  0.63605233  0.16594405  0.82104031    -0.13800
C872        C  0.63108327  0.18209137  0.78436462     0.08400
C873        C  0.59501843  0.17863769  0.76423942    -0.13800
C874        C  0.56381603  0.16087891  0.78173115    -0.13800
C875        C  0.56825798  0.14663819  0.81973794     0.08400
C876        C  0.60519856  0.14825949  0.83861894    -0.13800
H877        H  0.66320208  0.16900442  0.83702911     0.12400
H878        H  0.59036655  0.19157214  0.73606628     0.12400
H879        H  0.53585611  0.15960173  0.76614035     0.12400
H880        H  0.60969954  0.13818551  0.86803375     0.12400
C881        C  0.62014777  0.33322886  0.68460766    -0.13800
C882        C  0.63661680  0.33867471  0.72209595     0.08400
C883        C  0.62596994  0.37077863  0.74443306    -0.13800
C884        C  0.59682099  0.39561299  0.73026643    -0.13800
C885        C  0.57976532  0.38918218  0.69317274     0.08400
C886        C  0.59280008  0.35897808  0.66982747    -0.13800
H887        H  0.62823394  0.30882689  0.66676892     0.12400
H888        H  0.63810388  0.37508137  0.77363342     0.12400
H889        H  0.58580298  0.41813126  0.74899860     0.12400
H890        H  0.57905254  0.35327662  0.64152145     0.12400
C891        C  0.73790096  0.33245956  0.60310709    -0.13800
C892        C  0.72127107  0.34062901  0.63889951     0.08400
C893        C  0.69081309  0.36757309  0.64024855    -0.13800
C894        C  0.67276343  0.38104522  0.60577786    -0.13800
C895        C  0.68660200  0.36967848  0.56911253     0.08400
C896        C  0.72174173  0.34794752  0.56883898    -0.13800
H897        H  0.76222746  0.31250075  0.60140872     0.12400
H898        H  0.67924058  0.37619145  0.66785539     0.12400
H899        H  0.64660301  0.39832659  0.60826920     0.12400
H900        H  0.73593922  0.34087109  0.54206621     0.12400
C901        C  0.81589317  0.21609691  0.61379595    -0.13800
C902        C  0.78837255  0.19768220  0.63616963     0.08400
C903        C  0.78185036  0.15853025  0.62940442    -0.13800
C904        C  0.80180688  0.13865208  0.60009445    -0.13800
C905        C  0.82830306  0.15775863  0.57709766     0.08400
C906        C  0.83558816  0.19642952  0.58485584    -0.13800
H907        H  0.82221881  0.24605115  0.61842769     0.12400
H908        H  0.76128375  0.14342552  0.64653041     0.12400
H909        H  0.79564259  0.10879729  0.59453971     0.12400
H910        H  0.85621098  0.21171537  0.56791807     0.12400
C911        C  0.26521156  0.83120573  0.88413471    -0.13800
C912        C  0.28585944  0.79944616  0.86952854     0.08400
C913        C  0.32063739  0.78746087  0.88858586    -0.13800
C914        C  0.33565234  0.80821268  0.92037095    -0.13800
C915        C  0.31547683  0.84043658  0.93410827     0.08400
C916        C  0.27985737  0.85144789  0.91646462    -0.13800
H917        H  0.23813167  0.84086462  0.87018042     0.12400
H918        H  0.33686894  0.76286731  0.87814151     0.12400
H919        H  0.36311494  0.79933500  0.93416725     0.12400
H920        H  0.26405297  0.87625847  0.92705062     0.12400
C921        C  0.12261172  0.69951924  0.82502476    -0.13800
C922        C  0.14603631  0.73194285  0.83054454     0.08400
C923        C  0.14680219  0.74969887  0.86736040    -0.13800
C924        C  0.12986040  0.73243525  0.89900479    -0.13800
C925        C  0.11333963  0.69571273  0.89536807     0.08400
C926        C  0.10689117  0.68115596  0.85718017    -0.13800
H927        H  0.12046147  0.68575286  0.79668503     0.12400
H928        H  0.16407813  0.77507969  0.87261022     0.12400
H929        H  0.13256015  0.74688618  0.92695221     0.12400
H930        H  0.09312913  0.65383493  0.85221970     0.12400
C931        C  0.15562181  0.93118107  0.68333040    -0.13800
C932        C  0.18227339  0.95242922  0.66249591     0.08400
C933        C  0.22180973  0.94126417  0.66353547    -0.13800
C934        C  0.23429828  0.90899712  0.68368865    -0.13800
C935        C  0.20769801  0.88709614  0.70362289     0.08400
C936        C  0.16834718  0.89889315  0.70411276    -0.13800
H937        H  0.12502409  0.93934632  0.68321539     0.12400
H938        H  0.24299617  0.95679377  0.64753687     0.12400
H939        H  0.26476496  0.90044799  0.68269176     0.12400
H940        H  0.14719278  0.88210340  0.71880530     0.12400
C941        C  0.35335925  0.83943051  0.80760533    -0.13800
C942        C  0.34155449  0.83902133  0.76799995     0.08400
C943        C  0.34795506  0.87208149  0.74680276    -0.13800
C944        C  0.36248206  0.90539283  0.76538850    -0.13800
C945        C  0.36987654  0.90729580  0.80617759     0.08400
C946        C  0.36702875  0.87298223  0.82658489    -0.13800
H947        H  0.34942778  0.81426854  0.82447104     0.12400
H948        H  0.33860242  0.87324959  0.71644996     0.12400
H949        H  0.36564073  0.93045871  0.74789286     0.12400
H950        H  0.37257336  0.87257665  0.85772065     0.12400
C951        C  0.29888982  0.73098004  0.58313984    -0.13800
C952        C  0.30970108  0.71707299  0.61986429     0.00000
C953        C  0.33615520  0.68624150  0.62236582    -0.13800
C954        C  0.34750864  0.66613240  0.58951342    -0.13800
C955        C  0.33351230  0.67726848  0.55270930     0.08400
C956        C  0.31119703  0.71148002  0.54971302    -0.13800
H957        H  0.27840211  0.75467426  0.58023205     0.12400
H958        H  0.34508562  0.67506538  0.65058093     0.12400
H959        H  0.36451974  0.64021343  0.59340365     0.12400
H960        H  0.30118899  0.72189113  0.52160136     0.12400
C961        C  0.17085468  0.75156170  0.60056879    -0.13800
C962        C  0.17106766  0.77019443  0.63714498     0.08400
C963        C  0.15994800  0.80898760  0.63834092    -0.13800
C964        C  0.15119028  0.82911151  0.60413078    -0.13800
C965        C  0.15256794  0.81102965  0.56726735     0.08400
C966        C  0.16160423  0.77159971  0.56621642    -0.13800
H967        H  0.17966639  0.72186135  0.59826507     0.12400
H968        H  0.15968988  0.82437767  0.66580163     0.12400
H969        H  0.14497238  0.85937266  0.60672896     0.12400
H970        H  0.16221988  0.75617756  0.53874678     0.12400
C971        C  0.36054279  0.62708311  0.71351704    -0.13800
C972        C  0.33566319  0.62361953  0.74467459     0.08400
C973        C  0.32573465  0.58661579  0.75546593    -0.13800
C974        C  0.33644307  0.55453915  0.73302108    -0.13800
C975        C  0.35589497  0.55841124  0.69767129     0.08400
C976        C  0.36964571  0.59535708  0.68963163    -0.13800
H977        H  0.36980123  0.65522916  0.70542992     0.12400
H978        H  0.30634452  0.58275606  0.77929220     0.12400
H979        H  0.32728148  0.52706396  0.74278658     0.12400
H980        H  0.38529351  0.60080960  0.66365896     0.12400
C981        C  0.15326407  0.60297981  0.77450137    -0.13800
C982        C  0.17593961  0.63041532  0.79444160     0.08400
C983        C  0.17958777  0.62936563  0.83531025    -0.13800
C984        C  0.16311253  0.60013942  0.85579258    -0.13800
C985        C  0.14398481  0.57057918  0.83565953     0.08400
C986        C  0.13777877  0.57278674  0.79505961    -0.13800
H987        H  0.15066500  0.60288386  0.74305428     0.12400
H988        H  0.19687022  0.65040107  0.85136942     0.12400
H989        H  0.16863994  0.59866374  0.88692872     0.12400
H990        H  0.12369374  0.54959862  0.77906606     0.12400
loop_ 
_geom_bond_atom_site_label_1 
_geom_bond_atom_site_label_2 
_geom_bond_distance 
_geom_bond_site_symmetry_2 
_ccdc_geom_bond_type 
O1            C9   1.288       .  A
O1          Co21   2.024       .  S
O2           C10   1.249       .  A
O2          Co22   2.009       .  S
O3           C11   1.260       .  A
O3          Co23   1.947       .  S
O4           C12   1.274       .  A
O4          Co24   1.995       .  S
O5           C11   1.274       .  A
O5          Co22   2.022       .  S
O6           C12   1.275       .  A
O6          Co21   1.978       .  S
O7           C10   1.253       .  A
O7          Co24   2.051       .  S
O8            C9   1.275       .  A
O8          Co23   2.001       .  S
C9          C972   1.485       .  S
C10         C942   1.498       .  S
C11         C952   1.474       .  S
C12         C912   1.467       .  S
O13          C26   1.284       .  A
O13         Co21   2.028       .  S
O14          C27   1.252       .  A
O14         Co22   1.981       .  S
O15          C28   1.273       .  A
O15         Co23   2.007       .  S
O16          C29   1.306       .  A
O16         Co24   2.013       .  S
O17          C29   1.297       .  A
O17         Co22   1.976       .  S
O18          C28   1.261       .  A
O18         Co21   1.971       .  S
O19          C26   1.287       .  A
O19         Co24   2.011       .  S
O20          C27   1.265       .  A
O20         Co23   2.026       .  S
Co21         O25   2.009       .  S
Co22         O25   1.993       .  S
Co23         O25   2.052       .  S
Co24         O25   2.060       .  S
C26         C922   1.489       .  S
C27         C962   1.501       .  S
C28         C982   1.470       .  S
C29         C935   1.476       .  S
O30          C38   1.275       .  A
O30         Co50   2.001       .  S
O31          C39   1.270       .  A
O31         Co51   1.970       .  S
O32          C40   1.278       .  A
O32         Co52   1.994       .  S
O33          C41   1.278       .  A
O33         Co53   2.016       .  S
O34          C40   1.278       .  A
O34         Co51   1.991       .  S
O35          C41   1.273       .  A
O35         Co50   1.982       .  S
O36          C39   1.277       .  A
O36         Co53   2.015       .  S
O37          C38   1.278       .  A
O37         Co52   2.012       .  S
C38         C902   1.487       .  S
C39         C852   1.483       .  S
C40         C842   1.468       .  S
C41         C872   1.468       .  S
O42          C55   1.268       .  A
O42         Co50   1.986       .  S
O43          C56   1.280       .  A
O43         Co51   2.002       .  S
O44          C57   1.269       .  A
O44         Co52   1.962       .  S
O45          C58   1.273       .  A
O45         Co53   1.992       .  S
O46          C58   1.278       .  A
O46         Co51   2.021       .  S
O47          C57   1.285       .  A
O47         Co50   2.055       .  S
O48          C55   1.264       .  A
O48         Co53   1.967       .  S
O49          C56   1.279       .  A
O49         Co52   1.987       .  S
Co50         O54   2.044       .  S
Co51         O54   1.962       .  S
Co52         O54   1.946       .  S
Co53         O54   2.024       .  S
C55         C882   1.458       .  S
C56         C832   1.471       .  S
C57         C892   1.479       .  S
C58         C862   1.473       .  S
O59          C67   1.269       .  A
O59         Co79   1.999       .  S
O60          C68   1.292       .  A
O60         Co80   1.996       .  S
O61          C69   1.304       .  A
O61         Co81   2.093       .  S
O62          C70   1.270       .  A
O62         Co82   1.993       .  S
O63          C69   1.292       .  A
O63         Co80   1.935       .  S
O64          C70   1.274       .  A
O64         Co79   2.003       .  S
O65          C68   1.290       .  A
O65         Co82   2.021       .  S
O66          C67   1.264       .  A
O66         Co81   1.971       .  S
C67         C812   1.465       .  S
C68         C772   1.475       .  S
C69         C762   1.497       .  S
C70         C802   1.491       .  S
O71          C84   1.270       .  A
O71         Co79   2.002       .  S
O72          C85   1.271       .  A
O72         Co80   2.054       .  S
O73          C86   1.305       .  A
O73         Co81   2.062       .  S
O74          C87   1.274       .  A
O74         Co82   1.984       .  S
O75          C87   1.272       .  A
O75         Co80   1.975       .  S
O76          C86   1.285       .  A
O76         Co79   1.894       .  S
O77          C84   1.280       .  A
O77         Co82   2.008       .  S
O78          C85   1.265       .  A
O78         Co81   1.971       .  S
Co79         O83   1.895       .  S
Co80         O83   1.890       .  S
Co81         O83   2.012       .  S
Co82         O83   1.954       .  S
C84         C792   1.487       .  S
C85         C752   1.488       .  S
C86         C822   1.467       .  S
C87         C782   1.462       .  S
C88          C89   1.410       .  A
C88          C93   1.418   1_565  A
C88         C747   1.503       .  S
C89          C90   1.418       .  A
C89         C743   1.498       .  S
C90          C91   1.416   1_554  A
C90         C731   1.467       .  S
C91          C92   1.417   1_565  A
C91         C728   1.516       .  S
C92          C93   1.428   1_556  A
C92         C740   1.486       .  S
C93         C736   1.482       .  S
C94         C718   1.505       .  S
C94          C95   1.408       .  A
C94          C99   1.415       .  A
C95          C96   1.401   1_545  A
C95         H100   1.082       .  S
C96         C765   1.484       .  S
C96          C97   1.410       .  A
C97          C98   1.414   1_565  A
C97         H101   1.084       .  S
C98          C99   1.410       .  A
C98         C748   1.498       .  S
C99         H102   1.082       .  S
C103        C711   1.477       .  S
C103        C104   1.401       .  A
C103        C108   1.397       .  A
C104        C105   1.413   1_554  A
C104        H109   1.082       .  S
C105        C106   1.408       .  A
C105        C735   1.490       .  S
C106        C107   1.408       .  A
C106        H110   1.083       .  S
C107        C855   1.492       .  S
C107        C108   1.406   1_556  A
C108        H111   1.084       .  S
C112        C698   1.481       .  S
C112        C113   1.397       .  A
C112        C117   1.399   1_545  A
C113        C114   1.405   1_545  A
C113        H118   1.085       .  S
C114        C115   1.431       .  A
C114        C727   1.513       .  S
C115        C116   1.433       .  A
C115        H119   1.082       .  S
C116        C945   1.523       .  S
C116        C117   1.414       .  A
C117        H120   1.083       .  S
C121        C691   1.498       .  S
C121        C122   1.407       .  A
C121        C126   1.413       .  A
C122        C123   1.401       .  A
C122        H127   1.082       .  S
C123        C875   1.488       .  S
C123        C124   1.402       .  A
C124        C125   1.403       .  A
C124        H128   1.084       .  S
C125        C126   1.418       .  A
C125        C739   1.494       .  S
C126        H129   1.080       .  S
C130        C815   1.491       .  S
C130        C131   1.401       .  A
C130        C135   1.406       .  A
C131        C132   1.403       .  A
C131        H136   1.084       .  S
C132        C133   1.412       .  A
C132        C744   1.478       .  S
C133        C134   1.412       .  A
C133        H137   1.083       .  S
C134        C678   1.501       .  S
C134        C135   1.409       .  A
C135        H138   1.083       .  S
C139        C668   1.466       .  S
C139        C140   1.400       .  A
C139        C144   1.399       .  A
C140        C141   1.398   1_554  A
C140        H145   1.085       .  S
C141        C915   1.459       .  S
C141        C142   1.396       .  A
C142        C143   1.394       .  A
C142        H146   1.085       .  S
C143        C144   1.406   1_556  A
C143        C732   1.471       .  S
C144        H147   1.083       .  S
C148        C149   1.418       .  A
C148        C153   1.423   1_456  A
C148        C647   1.517       .  S
C149        C150   1.420       .  A
C149        C643   1.482       .  S
C150        C151   1.418   1_456  A
C150        C663   1.489       .  S
C151        C152   1.418       .  A
C151        C659   1.508   1_554  S
C152        C153   1.425       .  A
C152        C655   1.492       .  S
C153        C651   1.483       .  S
C154        C925   1.522       .  S
C154        C155   1.420       .  A
C154        C159   1.410       .  A
C155        C156   1.424       .  A
C155        H160   1.082       .  S
C156        C157   1.419       .  A
C156        C648   1.515       .  S
C157        C158   1.407       .  A
C157        H161   1.079   1_556  S
C158        C634   1.501   1_556  S
C158        C159   1.404       .  A
C159        H162   1.081       .  S
C163        C985   1.469       .  S
C163        C164   1.399       .  A
C163        C168   1.392       .  A
C164        C165   1.412       .  A
C164        H169   1.083       .  S
C165        C166   1.408       .  A
C165        C644   1.483       .  S
C166        C167   1.405       .  A
C166        H170   1.084       .  S
C167        C624   1.480       .  S
C167        C168   1.399       .  A
C168        H171   1.085       .  S
C172        C775   1.504       .  S
C172        C173   1.414       .  A
C172        C177   1.413       .  A
C173        C174   1.407   1_655  A
C173        H178   1.082       .  S
C174        C614   1.472       .  S
C174        C175   1.390       .  A
C175        C176   1.391   1_455  A
C175        H179   1.085       .  S
C176        C177   1.407       .  A
C176        C652   1.465       .  S
C177        H180   1.083       .  S
C181        C604   1.480       .  S
C181        C182   1.399       .  A
C181        C186   1.404       .  A
C182        C183   1.403       .  A
C182        H187   1.084       .  S
C183        C805   1.488       .  S
C183        C184   1.409       .  A
C184        C185   1.411       .  A
C184        H188   1.084       .  S
C185        C186   1.414       .  A
C185        C656   1.493       .  S
C186        H189   1.083       .  S
C190        C835   1.471       .  S
C190        C191   1.397   1_655  A
C190        C195   1.396       .  A
C191        C192   1.405       .  A
C191        H196   1.083       .  S
C192        C594   1.491       .  S
C192        C193   1.414       .  A
C193        C194   1.411       .  A
C193        H197   1.083       .  S
C194        C195   1.397   1_455  A
C194        C664   1.477       .  S
C195        H198   1.084       .  S
C199        C587   1.512       .  S
C199        C200   1.408       .  A
C199        C204   1.416       .  A
C200        C201   1.400   1_554  A
C200        H205   1.081       .  S
C201        C865   1.495       .  S
C201        C202   1.401       .  A
C202        C203   1.414   1_556  A
C202        H206   1.079       .  S
C203        C204   1.418       .  A
C203        C660   1.502       .  S
C204        H207   1.082       .  S
C208        C209   1.426       .  A
C208        C213   1.425       .  A
C208        C580   1.497       .  S
C209        C210   1.425       .  A
C209        C575   1.502       .  S
C210        C211   1.417       .  A
C210        C571   1.501       .  S
C211        C212   1.415       .  A
C211        C567   1.486       .  S
C212        C213   1.415       .  A
C212        C559   1.484       .  S
C213        C563   1.505       .  S
C214        C885   1.451       .  S
C214        C215   1.391       .  A
C214        C219   1.390       .  A
C215        C216   1.398       .  A
C215        H220   1.085       .  S
C216        C217   1.416       .  A
C216        C579   1.469       .  S
C217        C218   1.411       .  A
C217        H221   1.083       .  S
C218        C550   1.480       .  S
C218        C219   1.394       .  A
C219        H222   1.086       .  S
C223        C540   1.486       .  S
C223        C224   1.406       .  A
C223        C228   1.399       .  A
C224        C225   1.408       .  A
C224        H229   1.083       .  S
C225        C226   1.415       .  A
C225        C560   1.493       .  S
C226        C227   1.407       .  A
C226        H230   1.077       .  S
C227        C955   1.491       .  S
C227        C228   1.393       .  A
C228        H231   1.082       .  S
C232        C795   1.508       .  S
C232        C233   1.410       .  A
C232        C237   1.416       .  A
C233        C234   1.410       .  A
C233        H238   1.083       .  S
C234        C530   1.498       .  S
C234        C235   1.407       .  A
C235        C236   1.410       .  A
C235        H239   1.084       .  S
C236        C237   1.417       .  A
C236        C572   1.497       .  S
C237        H240   1.083       .  S
C241        C520   1.490       .  S
C241        C242   1.415       .  A
C241        C246   1.402       .  A
C242        C243   1.417       .  A
C242        H247   1.083       .  S
C243        C244   1.398       .  A
C243        C568   1.486       .  S
C244        C245   1.399       .  A
C244        H248   1.085       .  S
C245        C825   1.472       .  S
C245        C246   1.397       .  A
C246        H249   1.084       .  S
C250        C975   1.529       .  S
C250        C251   1.422       .  A
C250        C255   1.424       .  A
C251        C252   1.417       .  A
C251        H256   1.077       .  S
C252        C253   1.403       .  A
C252        C564   1.502       .  S
C253        C254   1.403       .  A
C253        H257   1.083       .  S
C254        C510   1.508       .  S
C254        C255   1.413       .  A
C255        H258   1.077       .  S
C259        C895   1.514       .  S
C259        C260   1.411       .  A
C259        C264   1.417       .  A
C260        C261   1.407       .  A
C260        H265   1.075       .  S
C261        C500   1.503       .  S
C261        C262   1.404       .  A
C262        C263   1.405       .  A
C262        H266   1.082       .  S
C263        C264   1.417       .  A
C263        C576   1.498       .  S
C264        H267   1.078       .  S
C268        C269   1.406       .  A
C268        C273   1.417   1_455  A
C268        C495   1.501       .  S
C269        C270   1.417   1_565  A
C269        C492   1.496       .  S
C270        C271   1.423   1_455  A
C270        C488   1.473       .  S
C271        C272   1.415   1_545  A
C271        C484   1.486       .  S
C272        C273   1.418       .  A
C272        C480   1.516       .  S
C273        C475   1.462       .  S
C274        C466   1.470       .  S
C274        C275   1.399       .  A
C274        C279   1.395   1_455  A
C275        C276   1.408   1_455  A
C275        H280   1.083       .  S
C276        C277   1.400       .  A
C276        C487   1.472       .  S
C277        C278   1.397       .  A
C277        H281   1.084       .  S
C278        C845   1.470       .  S
C278        C279   1.401       .  A
C279        H282   1.085       .  S
C283        C459   1.496       .  S
C283        C284   1.403       .  A
C283        C288   1.411       .  A
C284        C285   1.400   1_545  A
C284        H289   1.083       .  S
C285        C932   1.487       .  S
C285        C286   1.405       .  A
C286        C287   1.414   1_565  A
C286        H290   1.080       .  S
C287        C288   1.412       .  A
C287        C491   1.499       .  S
C288        H291   1.083       .  S
C292        C446   1.503       .  S
C292        C293   1.408       .  A
C292        C297   1.416       .  A
C293        C294   1.411       .  A
C293        H298   1.084       .  S
C294        C295   1.411       .  A
C294        C496   1.497       .  S
C295        C296   1.413       .  A
C295        H299   1.082       .  S
C296        C965   1.513       .  S
C296        C297   1.416       .  A
C297        H300   1.082       .  S
C301        C905   1.484       .  S
C301        C302   1.403       .  A
C301        C306   1.407       .  A
C302        C303   1.399       .  A
C302        H307   1.084       .  S
C303        C436   1.481       .  S
C303        C304   1.403       .  A
C304        C305   1.410       .  A
C304        H308   1.084       .  S
C305        C306   1.409       .  A
C305        C483   1.486       .  S
C306        H309   1.084       .  S
C310        C426   1.514       .  S
C310        C311   1.412       .  A
C310        C315   1.410   1_545  A
C311        C312   1.413   1_545  A
C311        H316   1.082       .  S
C312        C313   1.420       .  A
C312        C479   1.512       .  S
C313        C314   1.418       .  A
C313        H317   1.080       .  S
C314        C755   1.511       .  S
C314        C315   1.410       .  A
C315        H318   1.081       .  S
C319        C416   1.454       .  S
C319        C320   1.394       .  A
C319        C324   1.394       .  A
C320        C321   1.389   1_455  A
C320        H325   1.085       .  S
C321        C785   1.449       .  S
C321        C322   1.389       .  A
C322        C323   1.403   1_655  A
C322        H326   1.083       .  S
C323        C324   1.401       .  A
C323        C476   1.460       .  S
C324        H327   1.084       .  S
O328        C336   1.287       .  A
O328       Co348   1.907       .  S
O329        C337   1.267       .  A
O329       Co349   1.991       .  S
O330        C338   1.261       .  A
O330       Co350   1.938       .  S
O331        C339   1.281       .  A
O331       Co351   1.847       .  S
O332        C338   1.279       .  A
O332       Co349   2.029       .  S
O333        C339   1.321       .  A
O333       Co348   2.144       .  S
O334        C337   1.265       .  A
O334       Co351   2.015       .  S
O335        C336   1.302       .  A
O335       Co350   2.088       .  S
C336        C456   1.471       .  S
C337        C513   1.482       .  S
C338        C469   1.469       .  S
C339        C553   1.483       .  S
O340        C353   1.297       .  A
O340       Co348   2.073       .  S
O341        C354   1.276       .  A
O341       Co349   1.995       .  S
O342        C355   1.258       .  A
O342       Co350   1.928       .  S
O343        C356   1.274       .  A
O343       Co351   1.984       .  S
O344        C356   1.274       .  A
O344       Co349   1.986       .  S
O345        C355   1.306       .  A
O345       Co348   2.126       .  S
O346        C353   1.259       .  A
O346       Co351   1.954       .  S
O347        C354   1.274       .  A
O347       Co350   1.979       .  S
Co348       O352   1.959       .  S
Co349       O352   2.020       .  S
Co350       O352   1.926       .  S
Co351       O352   1.861       .  S
C353        C688   1.478       .  S
C354        C597   1.466       .  S
C355        C701   1.490       .  S
C356        C627   1.471       .  S
O357        C365   1.291       .  A
O357       Co377   2.120       .  S
O358        C366   1.273       .  A
O358       Co378   1.996       .  S
O359        C367   1.279       .  A
O359       Co379   2.004       .  S
O360        C368   1.274       .  A
O360       Co380   2.003       .  S
O361        C367   1.279       .  A
O361       Co378   2.006       .  S
O362        C368   1.268       .  A
O362       Co377   1.987       .  S
O363        C366   1.279       .  A
O363       Co380   2.006       .  S
O364        C365   1.273       .  A
O364       Co379   1.917       .  S
C365        C429   1.478       .  S
C366        C607   1.478       .  S
C367        C584   1.483       .  S
C368        C439   1.472       .  S
O369        C382   1.272       .  A
O369       Co377   1.977       .  S
O370        C383   1.280       .  A
O370       Co378   2.015       .  S
O371        C384   1.295       .  A
O371       Co379   2.129       .  S
O372        C385   1.273       .  A
O372       Co380   1.995       .  S
O373        C385   1.283       .  A
O373       Co378   2.024       .  S
O374        C384   1.273       .  A
O374       Co377   1.915       .  S
O375        C382   1.280       .  A
O375       Co380   2.023       .  S
O376        C383   1.269       .  A
O376       Co379   1.979       .  S
Co377       O381   1.985       .  S
Co378       O381   2.026       .  S
Co379       O381   1.973       .  S
Co380       O381   2.019       .  S
C382        C503   1.468       .  S
C383        C708   1.477       .  S
C384        C721   1.480       .  S
C385        C533   1.502       .  S
O386        C394   1.275       .  A
O386       Co406   2.015       .  S
O387        C395   1.278       .  A
O387       Co407   1.982       .  S
O388        C396   1.311       .  A
O388       Co408   2.124       .  S
O389        C397   1.266       .  A
O389       Co409   2.006       .  S
O390        C396   1.284       .  A
O390       Co407   1.888       .  S
O391        C397   1.271       .  A
O391       Co406   2.013       .  S
O392        C395   1.276       .  A
O392       Co409   2.000       .  S
O393        C394   1.263       .  A
O393       Co408   1.984       .  S
C394        C523   1.481       .  S
C395        C617   1.475       .  S
C396        C543   1.453       .  S
C397        C637   1.497       .  S
O398        C411   1.282       .  A
O398       Co406   2.011       .  S
O399        C412   1.254       .  A
O399       Co407   2.058       .  S
O400        C413   1.272       .  A
O400       Co408   2.008       .  S
O401        C414   1.276       .  A
O401       Co409   1.978       .  S
O402        C414   1.280       .  A
O402       Co407   2.003       .  S
O403        C413   1.272       .  A
O403       Co406   2.009       .  S
O404        C411   1.276       .  A
O404       Co409   1.970       .  S
O405        C412   1.256       .  A
O405       Co408   2.012       .  S
Co406       O410   2.057       .  S
Co407       O410   1.959       .  S
Co408       O410   2.097       .  S
Co409       O410   2.053       .  S
C411        C671   1.463       .  S
C412        C449   1.506       .  S
C413        C681   1.490       .  S
C414        C419   1.465       .  S
C415        C416   1.395       .  A
C415        C420   1.381       .  A
C415        H421   1.084       .  S
C416        C417   1.401       .  A
C417        C418   1.398       .  A
C417        H422   1.083       .  S
C418        C419   1.404       .  A
C418        H423   1.083       .  S
C419        C420   1.405       .  A
C420        H424   1.083       .  S
C425        C426   1.416       .  A
C425        C430   1.409       .  A
C425        H431   1.081       .  S
C426        C427   1.412       .  A
C427        C428   1.399       .  A
C427        H432   1.081       .  S
C428        C429   1.400       .  A
C428        H433   1.081       .  S
C429        C430   1.403       .  A
C430        H434   1.083       .  S
C435        C436   1.402       .  A
C435        C440   1.396       .  A
C435        H441   1.084       .  S
C436        C437   1.408       .  A
C437        C438   1.402       .  A
C437        H442   1.083       .  S
C438        C439   1.401       .  A
C438        H443   1.083       .  S
C439        C440   1.405       .  A
C440        H444   1.082       .  S
C445        C446   1.399       .  A
C445        C450   1.395       .  A
C445        H451   1.083       .  S
C446        C447   1.415       .  A
C447        C448   1.420       .  A
C447        H452   1.083       .  S
C448        C449   1.409       .  A
C448        H453   1.082       .  S
C449        C450   1.413       .  A
C450        H454   1.083       .  S
C455        C456   1.399       .  A
C455        C460   1.402       .  A
C455        H461   1.083       .  S
C456        C457   1.405       .  A
C457        C458   1.397       .  A
C457        H462   1.083       .  S
C458        C459   1.404       .  A
C458        H463   1.082       .  S
C459        C460   1.414       .  A
C460        H464   1.083       .  S
C465        C466   1.406       .  A
C465        C470   1.400       .  A
C465        H471   1.083       .  S
C466        C467   1.398       .  A
C467        C468   1.391       .  A
C467        H472   1.084       .  S
C468        C469   1.406       .  A
C468        H473   1.084       .  S
C469        C470   1.401       .  A
C470        H474   1.083       .  S
C475        C476   1.338   1_655  D
C475        H477   1.085       .  S
C476        H478   1.088       .  S
C479        C480   1.354       .  D
C479        H481   1.086   1_565  S
C480        H482   1.083       .  S
C483        C484   1.345       .  D
C483        H485   1.087       .  S
C484        H486   1.086       .  S
C487        C488   1.338   1_655  D
C487        H489   1.088       .  S
C488        H490   1.084       .  S
C491        C492   1.349   1_545  D
C491        H493   1.086       .  S
C492        H494   1.083       .  S
C495        C496   1.352       .  D
C495        H497   1.085       .  S
C496        H498   1.087       .  S
C499        C500   1.412       .  A
C499        C504   1.397       .  A
C499        H505   1.081       .  S
C500        C501   1.412       .  A
C501        C502   1.400       .  A
C501        H506   1.081       .  S
C502        C503   1.396       .  A
C502        H507   1.076       .  S
C503        C504   1.398       .  A
C504        H508   1.084       .  S
C509        C510   1.412       .  A
C509        C514   1.403       .  A
C509        H515   1.082       .  S
C510        C511   1.410       .  A
C511        C512   1.407       .  A
C511        H516   1.082       .  S
C512        C513   1.406       .  A
C512        H517   1.083       .  S
C513        C514   1.400       .  A
C514        H518   1.079       .  S
C519        C520   1.399       .  A
C519        C524   1.396       .  A
C519        H525   1.084       .  S
C520        C521   1.413       .  A
C521        C522   1.407       .  A
C521        H526   1.083       .  S
C522        C523   1.402       .  A
C522        H527   1.083       .  S
C523        C524   1.409       .  A
C524        H528   1.078       .  S
C529        C530   1.413       .  A
C529        C534   1.416       .  A
C529        H535   1.083       .  S
C530        C531   1.400       .  A
C531        C532   1.391       .  A
C531        H536   1.083       .  S
C532        C533   1.412       .  A
C532        H537   1.083       .  S
C533        C534   1.410       .  A
C534        H538   1.083       .  S
C539        C540   1.407       .  A
C539        C544   1.377       .  A
C539        H545   1.082       .  S
C540        C541   1.411       .  A
C541        C542   1.406       .  A
C541        H546   1.082       .  S
C542        C543   1.403       .  A
C542        H547   1.083       .  S
C543        C544   1.392       .  A
C544        H548   1.082       .  S
C549        C550   1.406       .  A
C549        C554   1.409       .  A
C549        H555   1.083       .  S
C550        C551   1.401       .  A
C551        C552   1.388       .  A
C551        H556   1.084       .  S
C552        C553   1.406       .  A
C552        H557   1.083       .  S
C553        C554   1.408       .  A
C554        H558   1.082       .  S
C559        C560   1.344       .  D
C559        H561   1.081       .  S
C560        H562   1.087       .  S
C563        C564   1.348       .  D
C563        H565   1.083       .  S
C564        H566   1.088       .  S
C567        C568   1.338       .  D
C567        H569   1.086       .  S
C568        H570   1.087       .  S
C571        C572   1.348       .  D
C571        H573   1.086       .  S
C572        H574   1.086       .  S
C575        C576   1.347       .  D
C575        H577   1.083       .  S
C576        H578   1.087       .  S
C579        C580   1.343       .  D
C579        H581   1.085       .  S
C580        H582   1.087       .  S
C583        C584   1.407       .  A
C583        C588   1.416       .  A
C583        H589   1.083       .  S
C584        C585   1.399       .  A
C585        C586   1.386       .  A
C585        H590   1.084       .  S
C586        C587   1.411       .  A
C586        H591   1.080       .  S
C587        C588   1.417       .  A
C588        H592   1.081       .  S
C593        C594   1.414       .  A
C593        C598   1.401       .  A
C593        H599   1.083       .  S
C594        C595   1.403       .  A
C595        C596   1.394       .  A
C595        H600   1.083       .  S
C596        C597   1.402       .  A
C596        H601   1.079       .  S
C597        C598   1.398       .  A
C598        H602   1.083       .  S
C603        C604   1.409       .  A
C603        C608   1.406       .  A
C603        H609   1.083       .  S
C604        C605   1.398       .  A
C605        C606   1.393       .  A
C605        H610   1.084       .  S
C606        C607   1.408       .  A
C606        H611   1.082       .  S
C607        C608   1.403       .  A
C608        H612   1.083       .  S
C613        C614   1.408       .  A
C613        C618   1.404       .  A
C613        H619   1.083       .  S
C614        C615   1.396       .  A
C615        C616   1.387       .  A
C615        H620   1.084       .  S
C616        C617   1.408       .  A
C616        H621   1.083       .  S
C617        C618   1.404       .  A
C618        H622   1.083       .  S
C623        C624   1.408       .  A
C623        C628   1.406       .  A
C623        H629   1.083       .  S
C624        C625   1.402       .  A
C625        C626   1.381       .  A
C625        H630   1.083       .  S
C626        C627   1.402       .  A
C626        H631   1.083       .  S
C627        C628   1.405       .  A
C628        H632   1.083       .  S
C633        C634   1.404       .  A
C633        C638   1.394       .  A
C633        H639   1.083       .  S
C634        C635   1.411       .  A
C635        C636   1.414       .  A
C635        H640   1.083       .  S
C636        C637   1.410       .  A
C636        H641   1.083       .  S
C637        C638   1.407       .  A
C638        H642   1.083       .  S
C643        C644   1.342       .  D
C643        H645   1.084       .  S
C644        H646   1.087       .  S
C647        C648   1.360       .  D
C647        H649   1.082   1_556  S
C648        H650   1.084       .  S
C651        C652   1.337       .  D
C651        H653   1.087       .  S
C652        H654   1.087       .  S
C655        C656   1.346       .  D
C655        H657   1.084       .  S
C656        H658   1.086       .  S
C659        C660   1.355   1_556  D
C659        H661   1.083       .  S
C660        H662   1.081       .  S
C663        C664   1.338       .  D
C663        H665   1.087       .  S
C664        H666   1.087   1_455  S
C667        C668   1.405       .  A
C667        C672   1.401       .  A
C667        H673   1.083       .  S
C668        C669   1.398       .  A
C669        C670   1.383       .  A
C669        H674   1.084       .  S
C670        C671   1.401       .  A
C670        H675   1.080       .  S
C671        C672   1.404       .  A
C672        H676   1.083       .  S
C677        C678   1.413       .  A
C677        C682   1.416       .  A
C677        H683   1.083       .  S
C678        C679   1.406       .  A
C679        C680   1.390       .  A
C679        H684   1.083       .  S
C680        C681   1.403       .  A
C680        H685   1.084       .  S
C681        C682   1.409       .  A
C682        H686   1.083       .  S
C687        C688   1.402       .  A
C687        C692   1.404       .  A
C687        H693   1.075       .  S
C688        C689   1.399       .  A
C689        C690   1.398       .  A
C689        H694   1.084       .  S
C690        C691   1.411       .  A
C690        H695   1.082       .  S
C691        C692   1.407       .  A
C692        H696   1.082       .  S
C697        C698   1.401       .  A
C697        C702   1.401       .  A
C697        H703   1.083       .  S
C698        C699   1.404       .  A
C699        C700   1.403       .  A
C699        H704   1.083       .  S
C700        C701   1.406       .  A
C700        H705   1.083       .  S
C701        C702   1.411       .  A
C702        H706   1.083       .  S
C707        C708   1.408       .  A
C707        C712   1.392       .  A
C707        H713   1.083       .  S
C708        C709   1.403       .  A
C709        C710   1.406       .  A
C709        H714   1.083       .  S
C710        C711   1.409       .  A
C710        H715   1.083       .  S
C711        C712   1.396       .  A
C712        H716   1.084       .  S
C717        C718   1.407       .  A
C717        C722   1.399       .  A
C717        H723   1.081       .  S
C718        C719   1.415       .  A
C719        C720   1.405       .  A
C719        H724   1.082       .  S
C720        C721   1.401       .  A
C720        H725   1.083       .  S
C721        C722   1.402       .  A
C722        H726   1.082       .  S
C727        C728   1.349       .  D
C727        H729   1.087   1_565  S
C728        H730   1.085       .  S
C731        C732   1.333   1_554  D
C731        H733   1.085       .  S
C732        H734   1.086       .  S
C735        C736   1.344   1_556  D
C735        H737   1.087       .  S
C736        H738   1.084       .  S
C739        C740   1.341       .  D
C739        H741   1.087       .  S
C740        H742   1.083       .  S
C743        C744   1.343       .  D
C743        H745   1.086       .  S
C744        H746   1.086       .  S
C747        C748   1.350   1_565  D
C747        H749   1.086       .  S
C748        H750   1.087       .  S
C751        C752   1.403       .  A
C751        C756   1.408       .  A
C751        H757   1.083       .  S
C752        C753   1.406       .  A
C753        C754   1.407       .  A
C753        H758   1.079       .  S
C754        C755   1.408       .  A
C754        H759   1.083       .  S
C755        C756   1.415       .  A
C756        H760   1.083       .  S
C761        C762   1.413       .  A
C761        C766   1.393       .  A
C761        H767   1.083       .  S
C762        C763   1.408       .  A
C763        C764   1.413       .  A
C763        H768   1.082       .  S
C764        C765   1.409       .  A
C764        H769   1.083       .  S
C765        C766   1.396       .  A
C766        H770   1.084       .  S
C771        C772   1.402       .  A
C771        C776   1.404       .  A
C771        H777   1.083       .  S
C772        C773   1.399       .  A
C773        C774   1.400       .  A
C773        H778   1.075       .  S
C774        C775   1.409       .  A
C774        H779   1.082       .  S
C775        C776   1.413       .  A
C776        H780   1.082       .  S
C781        C782   1.404       .  A
C781        C786   1.386       .  A
C781        H787   1.083       .  S
C782        C783   1.405       .  A
C783        C784   1.392       .  A
C783        H788   1.083       .  S
C784        C785   1.398       .  A
C784        H789   1.083       .  S
C785        C786   1.396       .  A
C786        H790   1.084       .  S
C791        C792   1.408       .  A
C791        C796   1.405       .  A
C791        H797   1.080       .  S
C792        C793   1.404       .  A
C793        C794   1.409       .  A
C793        H798   1.083       .  S
C794        C795   1.414       .  A
C794        H799   1.083       .  S
C795        C796   1.407       .  A
C796        H800   1.083       .  S
C801        C802   1.408       .  A
C801        C806   1.410       .  A
C801        H807   1.083       .  S
C802        C803   1.408       .  A
C803        C804   1.392       .  A
C803        H808   1.083       .  S
C804        C805   1.402       .  A
C804        H809   1.083       .  S
C805        C806   1.409       .  A
C806        H810   1.083       .  S
C811        C812   1.400       .  A
C811        C816   1.396       .  A
C811        H817   1.084       .  S
C812        C813   1.403       .  A
C813        C814   1.403       .  A
C813        H818   1.081       .  S
C814        C815   1.407       .  A
C814        H819   1.083       .  S
C815        C816   1.407       .  A
C816        H820   1.083       .  S
C821        C822   1.405       .  A
C821        C826   1.393       .  A
C821        H827   1.083       .  S
C822        C823   1.402       .  A
C823        C824   1.392       .  A
C823        H828   1.083       .  S
C824        C825   1.403       .  A
C824        H829   1.083       .  S
C825        C826   1.402       .  A
C826        H830   1.083       .  S
C831        C832   1.404       .  A
C831        C836   1.398       .  A
C831        H837   1.083       .  S
C832        C833   1.406       .  A
C833        C834   1.387       .  A
C833        H838   1.083       .  S
C834        C835   1.400       .  A
C834        H839   1.084       .  S
C835        C836   1.405       .  A
C836        H840   1.083       .  S
C841        C842   1.402       .  A
C841        C846   1.401       .  A
C841        H847   1.083       .  S
C842        C843   1.406       .  A
C843        C844   1.381       .  A
C843        H848   1.083       .  S
C844        C845   1.397       .  A
C844        H849   1.084       .  S
C845        C846   1.408       .  A
C846        H850   1.083       .  S
C851        C852   1.404       .  A
C851        C856   1.385       .  A
C851        H857   1.081       .  S
C852        C853   1.406       .  A
C853        C854   1.409       .  A
C853        H858   1.083       .  S
C854        C855   1.413       .  A
C854        H859   1.082       .  S
C855        C856   1.402       .  A
C856        H860   1.082       .  S
C861        C862   1.401       .  A
C861        C866   1.402       .  A
C861        H867   1.074       .  S
C862        C863   1.398       .  A
C863        C864   1.397       .  A
C863        H868   1.081       .  S
C864        C865   1.410       .  A
C864        H869   1.083       .  S
C865        C866   1.407       .  A
C866        H870   1.083       .  S
C871        C872   1.396       .  A
C871        C876   1.393       .  A
C871        H877   1.070       .  S
C872        C873   1.401       .  A
C873        C874   1.402       .  A
C873        H878   1.083       .  S
C874        C875   1.410       .  A
C874        H879   1.083       .  S
C875        C876   1.404       .  A
C876        H880   1.083       .  S
C881        C882   1.401       .  A
C881        C886   1.383       .  A
C881        H887   1.083       .  S
C882        C883   1.404       .  A
C883        C884   1.397       .  A
C883        H888   1.083       .  S
C884        C885   1.402       .  A
C884        H889   1.083       .  S
C885        C886   1.397       .  A
C886        H890   1.084       .  S
C891        C892   1.399       .  A
C891        C896   1.400       .  A
C891        H897   1.084       .  S
C892        C893   1.400       .  A
C893        C894   1.405       .  A
C893        H898   1.079       .  S
C894        C895   1.413       .  A
C894        H899   1.080       .  S
C895        C896   1.417       .  A
C896        H900   1.080       .  S
C901        C902   1.407       .  A
C901        C906   1.391       .  A
C901        H907   1.083       .  S
C902        C903   1.408       .  A
C903        C904   1.408       .  A
C903        H908   1.083       .  S
C904        C905   1.407       .  A
C904        H909   1.083       .  S
C905        C906   1.401       .  A
C906        H910   1.083       .  S
C911        C912   1.407       .  A
C911        C916   1.392       .  A
C911        H917   1.083       .  S
C912        C913   1.403       .  A
C913        C914   1.391       .  A
C913        H918   1.083       .  S
C914        C915   1.401       .  A
C914        H919   1.084       .  S
C915        C916   1.397       .  A
C916        H920   1.083       .  S
C921        C922   1.406       .  A
C921        C926   1.415       .  A
C921        H927   1.082       .  S
C922        C923   1.402       .  A
C923        C924   1.401       .  A
C923        H928   1.084       .  S
C924        C925   1.415       .  A
C924        H929   1.081       .  S
C925        C926   1.413       .  A
C926        H930   1.081       .  S
C931        C932   1.408       .  A
C931        C936   1.406       .  A
C931        H937   1.083       .  S
C932        C933   1.404       .  A
C933        C934   1.392       .  A
C933        H938   1.083       .  S
C934        C935   1.403       .  A
C934        H939   1.084       .  S
C935        C936   1.405       .  A
C936        H940   1.083       .  S
C941        C942   1.408       .  A
C941        C946   1.413       .  A
C941        H947   1.076       .  S
C942        C943   1.403       .  A
C943        C944   1.410       .  A
C943        H948   1.083       .  S
C944        C945   1.419       .  A
C944        H949   1.082       .  S
C945        C946   1.409       .  A
C946        H950   1.082       .  S
C951        C952   1.399       .  A
C951        C956   1.403       .  A
C951        H957   1.084       .  S
C952        C953   1.404       .  A
C953        C954   1.387       .  A
C953        H958   1.086       .  S
C954        C955   1.399       .  A
C954        H959   1.081       .  S
C955        C956   1.417       .  A
C956        H960   1.083       .  S
C961        C962   1.408       .  A
C961        C966   1.410       .  A
C961        H967   1.083       .  S
C962        C963   1.408       .  A
C963        C964   1.404       .  A
C963        H968   1.081       .  S
C964        C965   1.411       .  A
C964        H969   1.082       .  S
C965        C966   1.413       .  A
C966        H970   1.082       .  S
C971        C972   1.400       .  A
C971        C976   1.410       .  A
C971        H977   1.084       .  S
C972        C973   1.404       .  A
C973        C974   1.406       .  A
C973        H978   1.084       .  S
C974        C975   1.416       .  A
C974        H979   1.079       .  S
C975        C976   1.418       .  A
C976        H980   1.079       .  S
C981        C982   1.400       .  A
C981        C986   1.402       .  A
C981        H987   1.083       .  S
C982        C983   1.409       .  A
C983        C984   1.389       .  A
C983        H988   1.084       .  S
C984        C985   1.395       .  A
C984        H989   1.084       .  S
C985        C986   1.409       .  A
C986        H990   1.083       .  S
