geometry optimzed in LAMMPS
_audit_creation_date              2020-11-30 
_audit_creation_method            'lammps2cif' 
_symmetry_space_group_name_H-M    'P1' 
_symmetry_Int_Tables_number       1 
_symmetry_cell_setting            triclinic 
loop_ 
_symmetry_equiv_pos_as_xyz 
  x,y,z 
_cell_length_a                    59.799651792771044 
_cell_length_b                    59.87128778573743 
_cell_length_c                    59.9084571347971 
_cell_angle_alpha                 89.92044805198755 
_cell_angle_beta                  90.00780380209613 
_cell_angle_gamma                 89.89944354988206 
loop_ 
_atom_site_label 
_atom_site_type_symbol 
_atom_site_fract_x 
_atom_site_fract_y 
_atom_site_fract_z 
_atom_site_charge 
C1          C  0.66142684  0.74716436  0.86968224     0.03930
C2          C  0.67691961  0.74577744  0.85223329    -0.12220
C3          C  0.67001136  0.74924254  0.82998142     0.01430
C4          C  0.64708402  0.75293580  0.82550031    -0.10750
C5          C  0.63153413  0.75420187  0.84313742     0.03920
C6          C  0.63923612  0.75244393  0.86510594    -0.10170
H7          H  0.69429847  0.74236597  0.85607015     0.09510
H8          H  0.64133678  0.75423749  0.80840205     0.07040
H9          H  0.62752044  0.75388934  0.87885611     0.06890
C10         C  0.68680482  0.74893596  0.81163590     0.03930
C11         C  0.68666970  0.76564219  0.79510041    -0.12220
C12         C  0.70336382  0.76640041  0.77850986     0.01430
C13         C  0.72013464  0.74979273  0.77855983    -0.10750
C14         C  0.72031091  0.73264207  0.79468648     0.03920
C15         C  0.70360195  0.73247885  0.81118892    -0.10170
H16         H  0.67360471  0.77818859  0.79532892     0.09510
H17         H  0.73312408  0.75015880  0.76599230     0.07040
H18         H  0.70377135  0.71960533  0.82390746     0.06890
C19         C  0.69582034  0.82305526  0.74979346     0.03930
C20         C  0.69636514  0.80634174  0.76632915    -0.12220
C21         C  0.70318154  0.78437479  0.76108626     0.01430
C22         C  0.70980706  0.77966676  0.73899291    -0.10750
C23         C  0.70893129  0.79620578  0.72230255     0.03920
C24         C  0.70170513  0.81771550  0.72787101    -0.10170
H25         H  0.69199667  0.81068579  0.78332102     0.09510
H26         H  0.71513836  0.76297886  0.73451045     0.07040
H27         H  0.70096990  0.83054112  0.71509996     0.06890
C28         C  0.77702299  0.70390531  0.78904662     0.03930
C29         C  0.76040295  0.72051522  0.78945520    -0.12220
C30         C  0.73800121  0.71499313  0.79441197     0.01430
C31         C  0.73266786  0.69250681  0.79923907    -0.10750
C32         C  0.74933399  0.67595515  0.79878404     0.03920
C33         C  0.77126397  0.68175294  0.79346041    -0.10170
H34         H  0.76506822  0.73771798  0.78639705     0.09510
H35         H  0.71560319  0.68774979  0.80294617     0.07040
H36         H  0.78407003  0.66890133  0.79304986     0.06890
O37         O  0.43458319  0.74051679  0.76070644    -0.87550
C38         C  0.43992567  0.79986441  0.79207892     0.88480
Mg39       Mg  0.41874871  0.71307397  0.77648194     1.58150
O40         O  0.49008888  0.77086724  0.78622298    -0.87280
O41         O  0.46626196  0.75039061  0.74485640    -0.74610
C42         C  0.46471476  0.71098045  0.87604659     0.93530
O43         O  0.40193005  0.76333624  0.79655200    -0.74420
O44         O  0.45015579  0.70122562  0.86416226    -0.81930
Mg45       Mg  0.41619139  0.77074310  0.76148667     1.57960
C46         C  0.53406508  0.76215303  0.83633055     0.93450
O47         O  0.42896572  0.77692462  0.72550535    -0.80190
H48         H  0.51284004  0.75568538  0.76698476    -0.05540
C49         C  0.45785750  0.76473389  0.84536358     0.88390
O50         O  0.45378089  0.69860152  0.78428620    -0.74700
O51         O  0.44397025  0.78631342  0.77699260    -0.87470
O52         O  0.52465373  0.77745750  0.82482532    -0.80280
C53         C  0.49260092  0.83145781  0.78540788     0.93570
C54         C  0.44377649  0.78892548  0.71608115     0.93420
Mg55       Mg  0.49173360  0.73093252  0.83063239     1.57950
O56         O  0.47960980  0.72300748  0.86670740    -0.80200
O57         O  0.50588651  0.73910870  0.79575894    -0.74440
O58         O  0.48106052  0.82182295  0.77034761    -0.80280
O59         O  0.38525154  0.75524944  0.74710308    -0.81990
O60         O  0.42700082  0.67987562  0.82111878    -0.80310
C61         C  0.50342812  0.75548210  0.78239020     0.87860
O62         O  0.46390615  0.71544029  0.81518163    -0.87450
O63         O  0.47323512  0.76112682  0.83195126    -0.87560
O64         O  0.44179650  0.75102693  0.84808654    -0.74610
Mg65       Mg  0.47391896  0.78578054  0.75837613     1.57970
O66         O  0.50266566  0.82034339  0.80049897    -0.81990
H67         H  0.45046614  0.72098954  0.73867083    -0.05710
O68         O  0.41808767  0.73181247  0.80629133    -0.87260
H69         H  0.39549606  0.74710404  0.82567252    -0.05540
H70         H  0.48315126  0.69242594  0.80030789    -0.05710
C71         C  0.40472323  0.74718429  0.81014502     0.87830
C72         C  0.45022768  0.73665714  0.74766731     0.88420
C73         C  0.46760905  0.70175358  0.80013578     0.88470
H74         H  0.45785459  0.78017220  0.85473128    -0.05690
O75         O  0.45337301  0.80292911  0.80825778    -0.74720
Mg76       Mg  0.43396229  0.71603116  0.83382183     1.58000
H77         H  0.42429733  0.80902397  0.79173894    -0.05710
C78         C  0.37347608  0.74064909  0.75696305     0.93450
O79         O  0.40335585  0.68326613  0.79324917    -0.81950
C80         C  0.41437168  0.67093227  0.80651260     0.93510
O81         O  0.45725382  0.80024152  0.72787368    -0.81930
Mg82       Mg  0.48852063  0.78925461  0.81648838     1.58180
O83         O  0.38297091  0.72566669  0.76874600    -0.80270
O84         O  0.52238544  0.74672311  0.84498398    -0.81960
C85         C  0.44706036  0.07465117  0.84305201     0.03930
C86         C  0.44679214  0.05806386  0.82638048    -0.12220
C87         C  0.45354739  0.03594157  0.83118393     0.01430
C88         C  0.46037165  0.03079245  0.85318449    -0.10750
C89         C  0.46003799  0.04709183  0.87010523     0.03920
C90         C  0.45332134  0.06882466  0.86478583    -0.10170
H91         H  0.44203161  0.06266574  0.80955613     0.09510
H92         H  0.46549912  0.01396841  0.85740805     0.07040
H93         H  0.45326123  0.08148829  0.87769466     0.06890
C94         C  0.45368365  0.01830243  0.81336808     0.03930
C95         C  0.43724448  0.01805251  0.79646541    -0.12220
C96         C  0.43706390  0.00133574  0.77987798     0.01430
C97         C  0.45359562  0.98457057  0.78051300    -0.10750
C98         C  0.47022827  0.98441775  0.79712299     0.03920
C99         C  0.47017937  0.00143672  0.81332257    -0.10170
H100        H  0.42447378  0.03087146  0.79624133     0.09510
H101        H  0.45353019  0.97153361  0.76800835     0.07040
H102        H  0.48305811  0.00145931  0.82600817     0.06890
C103        C  0.40821939  0.99431042  0.72331289     0.03930
C104        C  0.42482562  0.99481294  0.73995422    -0.12220
C105        C  0.41949952  0.00113887  0.76204824     0.01430
C106        C  0.39721743  0.00714892  0.76700079    -0.10750
C107        C  0.38054924  0.00645153  0.75043441     0.03920
C108        C  0.38622201  0.99987034  0.72881364    -0.10170
H109        H  0.44191196  0.99079181  0.73549153     0.09510
H110        H  0.39262420  0.01189437  0.78382273     0.07040
H111        H  0.37340656  0.99936654  0.71601119     0.06890
C112        C  0.49869271  0.92748809  0.79272783     0.03930
C113        C  0.48210233  0.94411480  0.79273307    -0.12220
C114        C  0.48770060  0.96652538  0.79747365     0.01430
C115        C  0.51013385  0.97170370  0.80266603    -0.10750
C116        C  0.52670394  0.95498703  0.80261978     0.03920
C117        C  0.52083637  0.93310010  0.79726608    -0.10170
H118        H  0.46489694  0.93947371  0.78956114     0.09510
H119        H  0.51486481  0.98874826  0.80637635     0.07040
H120        H  0.53356506  0.92016861  0.79706067     0.06890
C121        C  0.44933924  0.29688903  0.11880889     0.03930
C122        C  0.44734301  0.28035806  0.10218559    -0.12220
C123        C  0.45261061  0.28516608  0.07968818     0.01430
C124        C  0.45869511  0.30721934  0.07393678    -0.10750
C125        C  0.46044334  0.32372128  0.09042845     0.03920
C126        C  0.45650988  0.31826193  0.11271381    -0.10170
H127        H  0.44219077  0.26369080  0.10690758     0.09510
H128        H  0.46152414  0.31173648  0.05665515     0.07040
H129        H  0.45829224  0.33109309  0.12534610     0.06890
C130        C  0.43553263  0.23333148  0.04637120     0.03930
C131        C  0.43562173  0.25046809  0.06250762    -0.12220
C132        C  0.45212170  0.26726020  0.06229254     0.01430
C133        C  0.46864706  0.26666398  0.04557397    -0.10750
C134        C  0.46873254  0.24991608  0.02915884     0.03920
C135        C  0.45208496  0.23335923  0.02962288    -0.10170
H136        H  0.42284229  0.25064758  0.07530388     0.09510
H137        H  0.48170285  0.27918149  0.04539985     0.07040
H138        H  0.45215249  0.22038471  0.01702929     0.06890
C139        C  0.52662205  0.25046148  0.00307115     0.03930
C140        C  0.50934263  0.25097243  0.01889327    -0.12220
C141        C  0.48682649  0.24933872  0.01211536     0.01430
C142        C  0.48180429  0.24783052  0.98911163    -0.10750
C143        C  0.49916069  0.24708065  0.97316026     0.03920
C144        C  0.52133452  0.24757872  0.98060899    -0.10170
H145        H  0.51343946  0.25267415  0.03642709     0.09510
H146        H  0.46452069  0.24780308  0.98372072     0.07040
H147        H  0.53482644  0.24668215  0.96855690     0.06890
C148        C  0.40735693  0.17609613  0.04355758     0.03930
C149        C  0.42391869  0.19282728  0.04344314    -0.12220
C150        C  0.41813637  0.21546477  0.04701376     0.01430
C151        C  0.39552865  0.22097520  0.05097707    -0.10750
C152        C  0.37911760  0.20426229  0.05105937     0.03920
C153        C  0.38509007  0.18212098  0.04711930    -0.10170
H154        H  0.44121599  0.18818695  0.04069511     0.09510
H155        H  0.39058221  0.23821269  0.05341507     0.07040
H156        H  0.37216424  0.16944439  0.04657795     0.06890
O157        O  0.23365831  0.98018374  0.77337938    -0.87550
C158        C  0.21259693  0.04354947  0.77249659     0.88480
Mg159      Mg  0.21131360  0.95365500  0.76678260     1.58150
O160        O  0.22314144  0.02325518  0.82594561    -0.87280
O161        O  0.25555851  0.99161882  0.80058411    -0.74610
C162        C  0.12134302  0.98078845  0.82548014     0.93530
O163        O  0.19591334  0.00363163  0.74323338    -0.74420
O164        O  0.12739991  0.96706004  0.81044853    -0.81930
Mg165      Mg  0.23365138  0.00696167  0.74984215     1.57960
C166        C  0.18207087  0.03148979  0.87814128     0.93450
O167        O  0.27207143  0.00971631  0.75422111    -0.80190
H168        H  0.24363901  0.00817090  0.84769552    -0.05540
C169        C  0.16044404  0.02430793  0.80412510     0.88390
O170        O  0.20707975  0.94772309  0.80456490    -0.74700
O171        O  0.22655396  0.02881889  0.77664971    -0.87470
O172        O  0.19281659  0.04288703  0.86365837    -0.80280
C173        C  0.23446539  0.08225018  0.81621158     0.93570
C174        C  0.28595367  0.02121531  0.76554510     0.93420
Mg175      Mg  0.17393224  0.99345656  0.84187655     1.57950
O176        O  0.13545948  0.99198491  0.83683886    -0.80200
O177        O  0.21178259  0.99645030  0.84839843    -0.74440
O178        O  0.24534051  0.06782396  0.80493196    -0.80280
O179        O  0.23846410  0.98477038  0.71981423    -0.81990
O180        O  0.16139753  0.93302924  0.78481183    -0.80310
C181        C  0.22686085  0.00954106  0.84104175     0.87860
O182        O  0.18065972  0.97101418  0.81517095    -0.87450
O183        O  0.17462234  0.02027510  0.81865590    -0.87560
O184        O  0.15272925  0.00927235  0.79126043    -0.74610
Mg185      Mg  0.24978728  0.02949139  0.80343713     1.57970
O186        O  0.21952518  0.07658894  0.83023963    -0.81990
H187        H  0.25470591  0.95965031  0.78935270    -0.05710
O188        O  0.18471164  0.97732010  0.76618483    -0.87260
H189        H  0.16412550  0.99178355  0.74411041    -0.05540
H190        H  0.19485731  0.94915877  0.83616216    -0.05710
C191        C  0.18090253  0.99065939  0.75082045     0.87830
C192        C  0.24832128  0.97646872  0.78755046     0.88420
C193        C  0.19394838  0.95563704  0.81931735     0.88470
H194        H  0.15502206  0.04138496  0.80181989    -0.05690
O195        O  0.20018485  0.05204136  0.78751960    -0.74720
Mg196      Mg  0.15770184  0.97135987  0.78808329     1.58000
H197        H  0.21049211  0.04893562  0.75538851    -0.05710
C198        C  0.22501084  0.96936872  0.71408732     0.93450
O199        O  0.18852280  0.92413909  0.76146776    -0.81950
C200        C  0.17238950  0.91830790  0.77396773     0.93510
O201        O  0.27978754  0.03421634  0.78110768    -0.81930
Mg202      Mg  0.19658768  0.04685944  0.82540079     1.58180
O203        O  0.21460861  0.95799293  0.72877357    -0.80270
O204        O  0.16926452  0.01569092  0.87203738    -0.81960
C205        C  0.95009981  0.45514241  0.22315322     0.03930
C206        C  0.95041073  0.47172408  0.23971346    -0.12220
C207        C  0.95541145  0.46610618  0.26209048     0.01430
C208        C  0.96001622  0.44361018  0.26745673    -0.10750
C209        C  0.95971321  0.42717179  0.25078196     0.03920
C210        C  0.95481954  0.43305045  0.22880097    -0.10170
H211        H  0.94704796  0.48890062  0.23509514     0.09510
H212        H  0.96326553  0.43875194  0.28457957     0.07040
H213        H  0.95440759  0.42025635  0.21600150     0.06890
C214        C  0.02811829  0.49639857  0.34323339     0.03930
C215        C  0.01194494  0.49661359  0.32618794    -0.12220
C216        C  0.98911115  0.49971416  0.33140666     0.01430
C217        C  0.98281529  0.50275541  0.35391506    -0.10750
C218        C  0.99901727  0.50231685  0.37082594     0.03920
C219        C  0.02137775  0.49876086  0.36541083    -0.10170
H220        H  0.01718559  0.49497897  0.30895912     0.09510
H221        H  0.96540962  0.50515425  0.35832626     0.07040
H222        H  0.03379524  0.49838046  0.37861884     0.06890
C223        C  0.95538953  0.48353658  0.27985257     0.03930
C224        C  0.97200679  0.48372138  0.29653140    -0.12220
C225        C  0.97187534  0.50000904  0.31346893     0.01430
C226        C  0.95501538  0.51642863  0.31341863    -0.10750
C227        C  0.93828271  0.51648034  0.29696827     0.03920
C228        C  0.93854415  0.49994965  0.28033844    -0.10170
H229        H  0.98501362  0.47110272  0.29641503     0.09510
H230        H  0.95485488  0.52917579  0.32624335     0.07040
H231        H  0.92556181  0.49990679  0.26772011     0.06890
C232        C  0.88121221  0.54431648  0.29302332     0.03930
C233        C  0.89792597  0.52784981  0.29479189    -0.12220
C234        C  0.92059993  0.53391585  0.29690363     0.01430
C235        C  0.92634668  0.55670073  0.29819437    -0.10750
C236        C  0.90968783  0.57320472  0.29677848     0.03920
C237        C  0.88743785  0.56679480  0.29385093    -0.10170
H238        H  0.89335638  0.51035817  0.29447906     0.09510
H239        H  0.94371255  0.56158786  0.29973233     0.07040
H240        H  0.87472398  0.57962139  0.29216279     0.06890
O241        O  0.72418920  0.52250757  0.82552122    -0.87550
C242        C  0.65973173  0.52427012  0.80516723     0.88480
Mg243      Mg  0.75117128  0.52876730  0.80333235     1.58150
O244        O  0.68098058  0.47068318  0.81506309    -0.87280
O245        O  0.71233422  0.49627956  0.84830764    -0.74610
C246        C  0.72447969  0.46991892  0.71356993     0.93530
O247        O  0.70148108  0.55266136  0.78782880    -0.74420
O248        O  0.73824475  0.48500050  0.71942690    -0.81930
Mg249      Mg  0.69775667  0.54633428  0.82552341     1.57960
C250        C  0.67234661  0.41894025  0.77380612     0.93450
O251        O  0.69432789  0.54143712  0.86379900    -0.80190
H252        H  0.69578708  0.44878824  0.83558498    -0.05540
C253        C  0.68076136  0.49259191  0.75198926     0.88390
O254        O  0.75649121  0.49094080  0.79952874    -0.74700
O255        O  0.67497489  0.51993967  0.81849575    -0.87470
O256        O  0.66110465  0.43358929  0.78442328    -0.80280
C257        C  0.62172768  0.47937304  0.82609170     0.93570
C258        C  0.68199716  0.53085405  0.87764852     0.93420
Mg259      Mg  0.71092241  0.45434084  0.76603128     1.57950
O260        O  0.71304362  0.45896472  0.72780332    -0.80200
O261        O  0.70756882  0.44789705  0.80380681    -0.74440
O262        O  0.63638688  0.48981615  0.83743969    -0.80280
O263        O  0.72105063  0.57612962  0.83068959    -0.81990
O264        O  0.77234958  0.50988083  0.75338582    -0.80310
C265        C  0.69453565  0.45543948  0.81883577     0.87860
O266        O  0.73360244  0.48061636  0.77274080    -0.87450
O267        O  0.68454395  0.47830259  0.76648340    -0.87560
O268        O  0.69603260  0.50509204  0.74410636    -0.74610
Mg269      Mg  0.67444577  0.49301362  0.84173230     1.57970
O270        O  0.62735105  0.46679483  0.80996256    -0.81990
H271        H  0.74442396  0.50736048  0.84746697    -0.05710
O272        O  0.72784544  0.52965635  0.77648726    -0.87260
H273        H  0.71289103  0.55141881  0.75595523    -0.05540
H274        H  0.75446629  0.45923031  0.78779157    -0.05710
C275        C  0.71430454  0.54491179  0.77274213     0.87830
C276        C  0.72768632  0.50891235  0.84074641     0.88420
C277        C  0.74851651  0.47624403  0.78644330     0.88470
H278        H  0.66373649  0.49498778  0.74636245    -0.05690
O279        O  0.65175195  0.50955780  0.79210822    -0.74720
Mg280      Mg  0.73394963  0.50755812  0.74953667     1.58000
H281        H  0.65341374  0.54118845  0.80419975    -0.05710
C282        C  0.73683483  0.58157698  0.81746366     0.93450
O283        O  0.78102011  0.53355227  0.78069356    -0.81950
C284        C  0.78672632  0.52081737  0.76469354     0.93510
O285        O  0.66848475  0.51599984  0.87088893    -0.81930
Mg286      Mg  0.65752779  0.47171469  0.78805862     1.58180
O287        O  0.74773291  0.56690798  0.80652746    -0.80270
O288        O  0.68833974  0.42462039  0.76105033    -0.81960
C289        C  0.74795999  0.49743653  0.12017531     0.03930
C290        C  0.76979895  0.50398158  0.11540339    -0.12220
C291        C  0.77742436  0.50547701  0.09335574     0.01430
C292        C  0.76196735  0.50231991  0.07587751    -0.10750
C293        C  0.73923707  0.49798145  0.08045216     0.03920
C294        C  0.73253061  0.49475861  0.10277671    -0.10170
H295        H  0.78115172  0.50720147  0.12913209     0.09510
H296        H  0.76755809  0.50323507  0.05871218     0.07040
H297        H  0.71531793  0.49078937  0.10673148     0.06890
C298        C  0.72249904  0.49758565  0.06203062     0.03930
C299        C  0.70546839  0.48138813  0.06158731    -0.12220
C300        C  0.68918277  0.48138149  0.04458889     0.01430
C301        C  0.69020615  0.49797450  0.02793253    -0.10750
C302        C  0.70688422  0.51452818  0.02823495     0.03920
C303        C  0.72299321  0.51412949  0.04530335    -0.10170
H304        H  0.70482901  0.46888223  0.07463598     0.09510
H305        H  0.67778009  0.49822427  0.01478800     0.07040
H306        H  0.73573736  0.52695131  0.04576314     0.06890
C307        C  0.63240739  0.45349938  0.03648193     0.03930
C308        C  0.64914448  0.46988559  0.03764536    -0.12220
C309        C  0.67110396  0.46414902  0.04415476     0.01430
C310        C  0.67560978  0.44184209  0.05036678    -0.10750
C311        C  0.65894454  0.42530435  0.04887172     0.03920
C312        C  0.63765626  0.43129248  0.04126874    -0.10170
H313        H  0.64483348  0.48711092  0.03412108     0.09510
H314        H  0.69217601  0.43717645  0.05599356     0.07040
H315        H  0.62471932  0.41870204  0.03993266     0.06890
C316        C  0.69838794  0.54532110  0.97314267     0.03930
C317        C  0.70276882  0.52806942  0.98863947    -0.12220
C318        C  0.70644567  0.53287012  0.01138882     0.01430
C319        C  0.70862739  0.55532884  0.01803104    -0.10750
C320        C  0.70502412  0.57260467  0.00258443     0.03920
C321        C  0.69826406  0.56740394  0.98091907    -0.10170
H322        H  0.70334221  0.51086258  0.98318554     0.09510
H323        H  0.71260300  0.55944013  0.03517982     0.07040
H324        H  0.69392230  0.58095545  0.96972927     0.06890
C325        C  0.25220243  0.25479899  0.22320621     0.03930
C326        C  0.23429987  0.25203269  0.23841055    -0.12220
C327        C  0.23845427  0.24874065  0.26143629     0.01430
C328        C  0.26070230  0.24604011  0.26876585    -0.10750
C329        C  0.27840334  0.24846588  0.25370996     0.03920
C330        C  0.27404773  0.25450334  0.23168159    -0.10170
H331        H  0.21720896  0.25209454  0.23247899     0.09510
H332        H  0.26431869  0.24253853  0.28614185     0.07040
H333        H  0.28808868  0.25789786  0.22076445     0.06890
C334        C  0.20300030  0.23291780  0.31181148     0.03930
C335        C  0.21930014  0.23220318  0.29493595    -0.12220
C336        C  0.21983395  0.24848123  0.27798553     0.01430
C337        C  0.20340103  0.26539487  0.27784029    -0.10750
C338        C  0.18681206  0.26627578  0.29454176     0.03920
C339        C  0.18688738  0.25001104  0.31153725    -0.10170
H340        H  0.23182847  0.21910265  0.29521912     0.09510
H341        H  0.20369961  0.27804385  0.26489404     0.07040
H342        H  0.17437531  0.25063246  0.32460839     0.06890
C343        C  0.13034554  0.29550374  0.29830199     0.03930
C344        C  0.14675381  0.27871040  0.29812094    -0.12220
C345        C  0.16943373  0.28416389  0.29444757     0.01430
C346        C  0.17535318  0.30677229  0.29111366    -0.10750
C347        C  0.15886513  0.32354975  0.29172122     0.03920
C348        C  0.13655470  0.31771015  0.29514959    -0.10170
H349        H  0.14179990  0.26146064  0.30037336     0.09510
H350        H  0.19269805  0.31137317  0.28871995     0.07040
H351        H  0.12383429  0.33065533  0.29543052     0.06890
C352        C  0.20356539  0.17648833  0.34090262     0.03930
C353        C  0.20294955  0.19289905  0.32412482    -0.12220
C354        C  0.20292218  0.21577873  0.32975236     0.01430
C355        C  0.20314759  0.22217115  0.35246260    -0.10750
C356        C  0.20325798  0.20584852  0.36941364     0.03920
C357        C  0.20353377  0.18335880  0.36317904    -0.10170
H358        H  0.20229958  0.18798096  0.30674983     0.09510
H359        H  0.20364571  0.23970898  0.35680479     0.07040
H360        H  0.20382345  0.17075194  0.37612504     0.06890
O361        O  0.21529975  0.73148305  0.51172468    -0.87550
C362        C  0.15541746  0.73618380  0.54188899     0.88480
Mg363      Mg  0.24322306  0.71593357  0.52715523     1.58150
O364        O  0.18405709  0.78660796  0.53767915    -0.87280
O365        O  0.20599956  0.76370044  0.49659560    -0.74610
C366        C  0.24293229  0.76018858  0.62772475     0.93530
O367        O  0.19267517  0.69925689  0.54746682    -0.74420
O368        O  0.25372198  0.74590790  0.61631248    -0.81930
Mg369      Mg  0.18507996  0.71313413  0.51230142     1.57960
C370        C  0.19118360  0.82970456  0.58770177     0.93450
O371        O  0.17784503  0.72481748  0.47625964    -0.80190
H372        H  0.19922328  0.80975729  0.51895428    -0.05540
C373        C  0.19033512  0.75345133  0.59633238     0.88390
O374        O  0.25678286  0.75102486  0.53566889    -0.74700
O375        O  0.16888163  0.74079946  0.52687782    -0.87470
O376        O  0.17588835  0.81977800  0.57672002    -0.80280
C377        C  0.12346303  0.78879755  0.53531459     0.93570
C378        C  0.16681123  0.74008572  0.46631899     0.93420
Mg379      Mg  0.22385175  0.78790222  0.58229077     1.57950
O380        O  0.23108317  0.77528854  0.61835761    -0.80200
O381        O  0.21585025  0.80219065  0.54752782    -0.74440
O382        O  0.13383544  0.77880006  0.51961403    -0.80280
O383        O  0.20094978  0.68251523  0.49845712    -0.81990
O384        O  0.27577886  0.72291007  0.57321192    -0.80310
C385        C  0.19941437  0.80006034  0.53418982     0.87860
O386        O  0.24012752  0.76025787  0.56702867    -0.87450
O387        O  0.19385025  0.76899409  0.58308364    -0.87560
O388        O  0.20425304  0.73752924  0.59907399    -0.74610
Mg389      Mg  0.17033852  0.77141417  0.50890660     1.57970
O390        O  0.13354583  0.79689594  0.55216685    -0.81990
H391        H  0.23534365  0.74772265  0.49050512    -0.05710
O392        O  0.22469505  0.71431832  0.55733651    -0.87260
H393        H  0.20870404  0.69209389  0.57651194    -0.05540
H394        H  0.26275606  0.77997067  0.55228366    -0.05710
C395        C  0.20893859  0.70139879  0.56102749     0.87830
C396        C  0.21947095  0.74738833  0.49913520     0.88420
C397        C  0.25365995  0.76438389  0.55190883     0.88470
H398        H  0.17477286  0.75316724  0.60552582    -0.05690
O399        O  0.15260284  0.74879384  0.55870955    -0.74720
Mg400      Mg  0.23960340  0.72997295  0.58535834     1.58000
H401        H  0.14638655  0.72059152  0.54106544    -0.05710
C402        C  0.21587348  0.67061963  0.50769440     0.93450
O403        O  0.27435122  0.70171516  0.54275921    -0.81950
C404        C  0.28539670  0.71164331  0.55790423     0.93510
O405        O  0.15788039  0.75628860  0.47673569    -0.81930
Mg406      Mg  0.16530988  0.78373675  0.56778310     1.58180
O407        O  0.23129598  0.67981588  0.51914806    -0.80270
O408        O  0.20748476  0.81881952  0.59604583    -0.81960
C409        C  0.15736129  0.82316072  0.79275931     0.03930
C410        C  0.17452100  0.80708234  0.79487322    -0.12220
C411        C  0.16940214  0.78446034  0.79921081     0.01430
C412        C  0.14698797  0.77845848  0.80318077    -0.10750
C413        C  0.13000018  0.79448306  0.80165971     0.03920
C414        C  0.13512661  0.81627490  0.79533618    -0.10170
H415        H  0.19181901  0.81212016  0.79320489     0.09510
H416        H  0.14258638  0.76130354  0.80684232     0.07040
H417        H  0.12158562  0.82810275  0.79293177     0.06890
C418        C  0.22022352  0.75039772  0.78146846     0.03930
C419        C  0.20375931  0.76714537  0.78228780    -0.12220
C420        C  0.18723865  0.76702929  0.79901282     0.01430
C421        C  0.18719981  0.74963851  0.81485855    -0.10750
C422        C  0.20354735  0.73266869  0.81442082     0.03920
C423        C  0.22015983  0.73342134  0.79773079    -0.10170
H424        H  0.20365477  0.78012389  0.76966915     0.09510
H425        H  0.17424621  0.74927034  0.82745955     0.07040
H426        H  0.23301536  0.72066218  0.79719804     0.06890
C427        C  0.27587205  0.74646102  0.75071901     0.03930
C428        C  0.26839577  0.74640140  0.72863565    -0.12220
C429        C  0.24600176  0.75005366  0.72346737     0.01430
C430        C  0.23019472  0.75183637  0.74068228    -0.10750
C431        C  0.23705248  0.75010449  0.76317978     0.03920
C432        C  0.26006129  0.74794761  0.76808091    -0.10170
H433        H  0.28039081  0.74472018  0.71515053     0.09510
H434        H  0.21270674  0.75420335  0.73657280     0.07040
H435        H  0.26561700  0.74789698  0.78529167     0.06890
C436        C  0.19882790  0.70185450  0.87028010     0.03930
C437        C  0.19711051  0.71856073  0.85373911    -0.12220
C438        C  0.20341276  0.71429504  0.83140903     0.01430
C439        C  0.20969227  0.69235861  0.82548503    -0.10750
C440        C  0.21071694  0.67549372  0.84172617     0.03920
C441        C  0.20627897  0.68058952  0.86402359    -0.10170
H442        H  0.19148453  0.73506384  0.85846965     0.09510
H443        H  0.21327234  0.68821049  0.80826039     0.07040
H444        H  0.20822096  0.66761495  0.87651110     0.06890
O445        O  0.73402929  0.76878502  0.56942502    -0.87550
C446        C  0.71278744  0.70505490  0.56890990     0.88480
Mg447      Mg  0.71198510  0.79578792  0.57623056     1.58150
O448        O  0.72377330  0.72690710  0.51622421    -0.87280
O449        O  0.75654436  0.75762191  0.54258790    -0.74610
C450        C  0.62225989  0.77121064  0.51562120     0.93530
O451        O  0.69569432  0.74555416  0.59807794    -0.74420
O452        O  0.62776042  0.78429153  0.53143207    -0.81930
Mg453      Mg  0.73346717  0.74152518  0.59231528     1.57960
C454        C  0.68235312  0.72013082  0.46393671     0.93450
O455        O  0.77175114  0.73796153  0.58854386    -0.80190
H456        H  0.74460071  0.74210582  0.49496755    -0.05540
C457        C  0.65976921  0.72678206  0.53694777     0.88390
O458        O  0.70850885  0.80184864  0.53853504    -0.74700
O459        O  0.72671450  0.71989848  0.56520037    -0.87470
O460        O  0.69352683  0.70830656  0.47773839    -0.80280
C461        C  0.73501840  0.66776531  0.52368666     0.93570
C462        C  0.78602334  0.72680146  0.57730112     0.93420
Mg463      Mg  0.67505993  0.75796439  0.50019845     1.57950
O464        O  0.63701316  0.76087330  0.50427657    -0.80200
O465        O  0.71288713  0.75421883  0.49420635    -0.74440
O466        O  0.74605155  0.68180022  0.53526733    -0.80280
O467        O  0.73853693  0.76342436  0.62253012    -0.81990
O468        O  0.66227888  0.81809371  0.55701776    -0.80310
C469        C  0.72777467  0.74082833  0.50143668     0.87860
O470        O  0.68157567  0.77965435  0.52722422    -0.87450
O471        O  0.67465952  0.73065922  0.52305848    -0.87560
O472        O  0.65227108  0.74175976  0.55006626    -0.74610
Mg473      Mg  0.75036394  0.71989873  0.53863416     1.57970
O474        O  0.71938637  0.67381880  0.51058216    -0.81990
H475        H  0.75545198  0.78941403  0.55422473    -0.05710
O476        O  0.68478602  0.77292359  0.57615396    -0.87260
H477        H  0.66400290  0.75769952  0.59741702    -0.05540
H478        H  0.69696041  0.80100098  0.50668311    -0.05710
C479        C  0.68081406  0.75898028  0.59091743     0.87830
C480        C  0.74901347  0.77262194  0.55564330     0.88420
C481        C  0.69544818  0.79452180  0.52346533     0.88470
H482        H  0.65337481  0.70997381  0.53839684    -0.05690
O483        O  0.70008684  0.69739694  0.55370134    -0.74720
Mg484      Mg  0.65803057  0.77961541  0.55387153     1.58000
H485        H  0.71093521  0.69885429  0.58576258    -0.05710
C486        C  0.72618831  0.77964977  0.62850620     0.93450
O487        O  0.68954188  0.82589723  0.58126286    -0.81950
C488        C  0.67368956  0.83200244  0.56845541     0.93510
O489        O  0.78012151  0.71419943  0.56129251    -0.81930
Mg490      Mg  0.69675058  0.70374718  0.51598476     1.58180
O491        O  0.71516613  0.79143237  0.61454091    -0.80270
O492        O  0.66988200  0.73615751  0.47012520    -0.81960
C493        C  0.77549960  0.20382640  0.29237485     0.03930
C494        C  0.75999480  0.22147145  0.29321097    -0.12220
C495        C  0.73689969  0.21705652  0.29391380     0.01430
C496        C  0.72938832  0.19477122  0.29386186    -0.10750
C497        C  0.74472170  0.17690635  0.29429697     0.03920
C498        C  0.76759335  0.18181632  0.29309254    -0.10170
H499        H  0.76584887  0.23857505  0.29361125     0.09510
H500        H  0.71160913  0.19149612  0.29346000     0.07040
H501        H  0.77956691  0.16822615  0.29309851     0.06890
C502        C  0.70491555  0.27000992  0.27915932     0.03930
C503        C  0.72104159  0.25283627  0.27901447    -0.12220
C504        C  0.72054920  0.23568505  0.29500497     0.01430
C505        C  0.70424345  0.23614352  0.31188070    -0.10750
C506        C  0.68824338  0.25334623  0.31274550     0.03920
C507        C  0.68851789  0.27001799  0.29613525    -0.10170
H508        H  0.73393770  0.25258398  0.26633107     0.09510
H509        H  0.70392143  0.22295246  0.32427569     0.07040
H510        H  0.67582564  0.28293722  0.29641886     0.06890
C511        C  0.70960906  0.29866212  0.22211409     0.03930
C512        C  0.71085805  0.28242510  0.23915827    -0.12220
C513        C  0.70488530  0.28761256  0.26139584     0.01430
C514        C  0.69872138  0.30974034  0.26651175    -0.10750
C515        C  0.69779613  0.32603980  0.24973007     0.03920
C516        C  0.70263435  0.32029675  0.22763885    -0.10170
H517        H  0.71596365  0.26561736  0.23489200     0.09510
H518        H  0.69512738  0.31451242  0.28357137     0.07040
H519        H  0.70122908  0.33292734  0.21473297     0.06890
C520        C  0.66024998  0.24782194  0.36980732     0.03930
C521        C  0.67680155  0.24938138  0.35311442    -0.12220
C522        C  0.67086747  0.25336607  0.33060738     0.01430
C523        C  0.64815865  0.25663911  0.32515534    -0.10750
C524        C  0.63166009  0.25510438  0.34172667     0.03920
C525        C  0.63777482  0.25025469  0.36369881    -0.10170
H526        H  0.69426073  0.24764206  0.35761290     0.09510
H527        H  0.64322417  0.25963952  0.30800806     0.07040
H528        H  0.62481533  0.24848315  0.37623527     0.06890
O529        O  0.46523384  0.21484377  0.31748687    -0.87550
C530        C  0.40603125  0.24679055  0.31103562     0.88480
Mg531      Mg  0.49328973  0.23163333  0.33154983     1.58150
O532        O  0.43460315  0.23961411  0.26094336    -0.87280
O533        O  0.45564294  0.19886079  0.28584520    -0.74610
C534        C  0.49287059  0.33070612  0.28170901     0.93530
O535        O  0.44310331  0.25262363  0.34806966    -0.74420
O536        O  0.50199098  0.32073350  0.29813090    -0.81930
Mg537      Mg  0.43479465  0.21711238  0.33602175     1.57960
C538        C  0.44195677  0.28733412  0.21464378     0.93450
O539        O  0.42604571  0.18051114  0.32621485    -0.80190
H540        H  0.44978269  0.21926313  0.23923252    -0.05540
C541        C  0.44027257  0.29917341  0.29057709     0.88390
O542        O  0.50652414  0.23883110  0.29604871    -0.74700
O543        O  0.41925517  0.23122893  0.30747025    -0.87470
O544        O  0.42665637  0.27676332  0.22501957    -0.80280
C545        C  0.37384802  0.23849442  0.25924022     0.93570
C546        C  0.41486891  0.17064334  0.31099986     0.93420
Mg547      Mg  0.47441940  0.28377669  0.25664516     1.57950
O548        O  0.48194523  0.32027869  0.26673280    -0.80200
O549        O  0.46640454  0.24825563  0.24477544    -0.74440
O550        O  0.38387817  0.22347810  0.27059658    -0.80280
O551        O  0.45046125  0.20459171  0.36783131    -0.81990
O552        O  0.52566606  0.27792980  0.32212476    -0.80310
C553        C  0.44997276  0.23513348  0.24782068     0.87860
O554        O  0.49026735  0.27003916  0.28527987    -0.87450
O555        O  0.44416564  0.28587841  0.27521696    -0.87560
O556        O  0.45375131  0.30196033  0.30678274    -0.74610
Mg557      Mg  0.42030333  0.21207070  0.27775929     1.57970
O558        O  0.38447773  0.25362317  0.24882160    -0.81990
H559        H  0.48468033  0.19232301  0.30221746    -0.05710
O560        O  0.47461353  0.26165984  0.33163405    -0.87260
H561        H  0.45944440  0.28179929  0.35356274    -0.05540
H562        H  0.51276694  0.25406581  0.26638705    -0.05710
C563        C  0.45932230  0.26596824  0.34488714     0.87830
C564        C  0.46908347  0.20151153  0.30212867     0.88420
C565        C  0.50363787  0.25453878  0.28195759     0.88470
H566        H  0.42458170  0.30819653  0.29057344    -0.05690
O567        O  0.40316002  0.26263118  0.29711747    -0.74720
Mg568      Mg  0.48914032  0.28937573  0.31488194     1.58000
H569        H  0.39708683  0.24723540  0.32671138    -0.05710
C570        C  0.46681457  0.21350510  0.37801473     0.93450
O571        O  0.52392194  0.24886578  0.34508886    -0.81950
C572        C  0.53524160  0.26324917  0.33431962     0.93510
O573        O  0.40725216  0.18144583  0.29438687    -0.81930
Mg574      Mg  0.41590306  0.26978228  0.26148796     1.58180
O575        O  0.48203747  0.22439492  0.36784206    -0.80270
O576        O  0.45858354  0.29597596  0.22463509    -0.81960
O577        O  0.72303388  0.22686239  0.01643513    -0.87550
C578        C  0.65902244  0.22589402  0.03647255     0.88480
Mg579      Mg  0.74994583  0.22005812  0.03831516     1.58150
O580        O  0.68049553  0.27885682  0.02638192    -0.87280
O581        O  0.71184963  0.25356999  0.99374946    -0.74610
C582        C  0.72547108  0.27975955  0.12816866     0.93530
O583        O  0.69978907  0.19715406  0.05386662    -0.74420
O584        O  0.73782160  0.26341441  0.12248222    -0.81930
Mg585      Mg  0.69643605  0.20326450  0.01607038     1.57960
C586        C  0.67317717  0.33112187  0.06745767     0.93450
O587        O  0.69396193  0.20759958  0.97772366    -0.80190
H588        H  0.69613301  0.30014185  0.00592513    -0.05540
C589        C  0.68044187  0.25828188  0.09064849     0.88390
O590        O  0.75591050  0.25773868  0.04221608    -0.74700
O591        O  0.67395383  0.22987942  0.02266889    -0.87470
O592        O  0.66155841  0.31707760  0.05641766    -0.80280
C593        C  0.62126875  0.27003641  0.01575262     0.93570
C594        C  0.68255056  0.21862406  0.96345867     0.93420
Mg595      Mg  0.71134239  0.29516729  0.07560394     1.57950
O596        O  0.71454405  0.29134907  0.11396867    -0.80200
O597        O  0.70767574  0.30075544  0.03777272    -0.74440
O598        O  0.63578997  0.25975178  0.00398771    -0.80280
O599        O  0.71899499  0.17328327  0.01127436    -0.81990
O600        O  0.77157625  0.23825399  0.08829208    -0.80310
C601        C  0.69452973  0.29361039  0.02268395     0.87860
O602        O  0.73353200  0.26842993  0.06925532    -0.87450
O603        O  0.68438388  0.27202661  0.07568080    -0.87560
O604        O  0.69537123  0.24504010  0.09806181    -0.74610
Mg605      Mg  0.67397848  0.25681247  0.99944755     1.57970
O606        O  0.62722576  0.28306043  0.03142427    -0.81990
H607        H  0.74398043  0.24283386  0.99595196    -0.05710
O608        O  0.72665521  0.21951209  0.06524832    -0.87260
H609        H  0.71121508  0.19811642  0.08574813    -0.05540
H610        H  0.75509431  0.28926907  0.05454115    -0.05710
C611        C  0.71278228  0.20458488  0.06896508     0.87830
C612        C  0.72697546  0.24087677  0.00172118     0.88420
C613        C  0.74856215  0.27248840  0.05561337     0.88470
H614        H  0.66361806  0.25701313  0.09711802    -0.05690
O615        O  0.65163172  0.24074584  0.04978369    -0.74720
Mg616      Mg  0.73319305  0.24131921  0.09228742     1.58000
H617        H  0.65255635  0.20909384  0.03771800    -0.05710
C618        C  0.73460338  0.16747491  0.02449973     0.93450
O619        O  0.78000538  0.21502364  0.06042803    -0.81950
C620        C  0.78577363  0.22749039  0.07657986     0.93510
O621        O  0.66915737  0.23411873  0.96929701    -0.81930
Mg622      Mg  0.65745816  0.27858414  0.05352169     1.58180
O623        O  0.74589744  0.18193997  0.03526195    -0.80270
O624        O  0.68901931  0.32515486  0.08029910    -0.81960
C625        C  0.02736803  0.79625688  0.54139306     0.03930
C626        C  0.01074508  0.77964136  0.54079920    -0.12220
C627        C  0.98826524  0.78486951  0.54598238     0.01430
C628        C  0.98281994  0.80716836  0.55150520    -0.10750
C629        C  0.99949607  0.82363556  0.55222112     0.03920
C630        C  0.02156690  0.81804630  0.54729879    -0.10170
H631        H  0.01548366  0.76264457  0.53681133     0.09510
H632        H  0.96565746  0.81188099  0.55486761     0.07040
H633        H  0.03435742  0.83085160  0.54797347     0.06890
C634        C  0.95466992  0.73301760  0.52992824     0.03930
C635        C  0.97084139  0.75006413  0.52970956    -0.12220
C636        C  0.97065947  0.76710044  0.54592981     0.01430
C637        C  0.95357743  0.76706590  0.56217525    -0.10750
C638        C  0.93712416  0.75021461  0.56260885     0.03920
C639        C  0.93810456  0.73311612  0.54653492    -0.10170
H640        H  0.98345474  0.75011591  0.51673662     0.09510
H641        H  0.95312951  0.78020478  0.57454549     0.07040
H642        H  0.92575445  0.71990559  0.54671042     0.06890
C643        C  0.88083150  0.74146209  0.59127922     0.03930
C644        C  0.88626609  0.74643530  0.61337045    -0.12220
C645        C  0.90736471  0.75482705  0.61895109     0.01430
C646        C  0.92364840  0.75685489  0.60205228    -0.10750
C647        C  0.91910644  0.75009922  0.57995541     0.03920
C648        C  0.89726054  0.74295066  0.57463311    -0.10170
H649        H  0.87362206  0.74442095  0.62617130     0.09510
H650        H  0.94004963  0.76312926  0.60632763     0.07040
H651        H  0.89281783  0.73908128  0.55754412     0.06890
C652        C  0.94895570  0.67695963  0.50014232     0.03930
C653        C  0.95195829  0.69287496  0.51724577    -0.12220
C654        C  0.95401223  0.71584599  0.51201717     0.01430
C655        C  0.95448309  0.72253972  0.48946592    -0.10750
C656        C  0.95154677  0.70676239  0.47246339     0.03920
C657        C  0.94764362  0.68451752  0.47807268    -0.10170
H658        H  0.95295213  0.68752710  0.53448536     0.09510
H659        H  0.95663097  0.73997812  0.48513864     0.07040
H660        H  0.94455906  0.67265476  0.46477142     0.06890
O661        O  0.93395508  0.02260278  0.51589835    -0.87550
C662        C  0.99808681  0.02377603  0.53521587     0.88480
Mg663      Mg  0.90772602  0.02954039  0.53872516     1.58150
O664        O  0.97667657  0.97077346  0.52555692    -0.87280
O665        O  0.94493189  0.99590741  0.49325105    -0.74610
C666        C  0.93448500  0.96958481  0.62840160     0.93530
O667        O  0.95780251  0.05243151  0.55263561    -0.74420
O668        O  0.92106846  0.98504759  0.62247249    -0.81930
Mg669      Mg  0.96038108  0.04619486  0.51474920     1.57960
C670        C  0.98610966  0.91840394  0.56653977     0.93450
O671        O  0.96252529  0.04154031  0.47635252    -0.80190
H672        H  0.96014945  0.94997266  0.50537094    -0.05540
C673        C  0.97851992  0.99155675  0.58916389     0.88390
O674        O  0.90178218  0.99168616  0.54295585    -0.74700
O675        O  0.98310105  0.01976985  0.52149046    -0.87470
O676        O  0.99672525  0.93253175  0.55463772    -0.80280
C677        C  0.03587302  0.97902929  0.51304685     0.93570
C678        C  0.97409100  0.03040251  0.46234145     0.93420
Mg679      Mg  0.94784826  0.95413062  0.57566379     1.57950
O680        O  0.94600533  0.95855447  0.61422880    -0.80200
O681        O  0.95024972  0.94825997  0.53774435    -0.74440
O682        O  0.02145576  0.99035773  0.50212441    -0.80280
O683        O  0.93722316  0.07568172  0.50944912    -0.81990
O684        O  0.88692110  0.01114094  0.58844029    -0.80310
C685        C  0.96254257  0.95602338  0.52220693     0.87860
O686        O  0.92494105  0.98064954  0.56932576    -0.87450
O687        O  0.97435903  0.97763115  0.57447958    -0.87560
O688        O  0.96350548  0.00426539  0.59729714    -0.74610
Mg689      Mg  0.98294885  0.99275424  0.49850433     1.57970
O690        O  0.03012464  0.96569194  0.52854247    -0.81990
H691        H  0.91289578  0.00710947  0.49512275    -0.05710
O692        O  0.93171535  0.02965274  0.56496266    -0.87260
H693        H  0.94796393  0.05075257  0.58504926    -0.05540
H694        H  0.90304036  0.95995487  0.55492126    -0.05710
C695        C  0.94565855  0.04457825  0.56824191     0.87830
C696        C  0.92988230  0.00873734  0.50112744     0.88420
C697        C  0.90959386  0.97673594  0.55597223     0.88470
H698        H  0.99560250  0.99337064  0.59481875    -0.05690
O699        O  0.00618607  0.00874805  0.54795110    -0.74720
Mg700      Mg  0.92547478  0.00772388  0.59218859     1.58000
H701        H  0.00406217  0.04071815  0.53683661    -0.05710
C702        C  0.92213977  0.08188649  0.52305227     0.93450
O703        O  0.87836580  0.03499822  0.56166674    -0.81950
C704        C  0.87229384  0.02218478  0.57743897     0.93510
O705        O  0.98744813  0.01499514  0.46834068    -0.81930
Mg706      Mg  0.00066398  0.97085713  0.55168347     1.58180
O707        O  0.91167695  0.06796938  0.53534774    -0.80270
O708        O  0.97104182  0.92442022  0.58028115    -0.81960
C709        C  0.77656727  0.00485862  0.59147310     0.03930
C710        C  0.76035519  0.00297395  0.57448321    -0.12220
C711        C  0.73767528  0.99899274  0.57976486     0.01430
C712        C  0.73169554  0.99552444  0.60229885    -0.10750
C713        C  0.74784068  0.99706666  0.61924107     0.03920
C714        C  0.76981080  0.00259836  0.61373175    -0.10170
H715        H  0.76538807  0.00440975  0.55718083     0.09510
H716        H  0.71449765  0.99208238  0.60677963     0.07040
H717        H  0.78197475  0.00450206  0.62701710     0.06890
C718        C  0.70342038  0.01598971  0.52859377     0.03930
C719        C  0.68652643  0.99950985  0.52905248    -0.12220
C720        C  0.68627955  0.98263948  0.54554232     0.01430
C721        C  0.70311254  0.98275810  0.56203040    -0.10750
C722        C  0.72023139  0.99882744  0.56189066     0.03920
C723        C  0.72033653  0.01517479  0.54499032    -0.10170
H724        H  0.67351827  0.99978836  0.51652301     0.09510
H725        H  0.70293567  0.97029216  0.57512975     0.07040
H726        H  0.73362035  0.02742003  0.54478239     0.06890
C727        C  0.71147358  0.07264562  0.49965578     0.03930
C728        C  0.71138644  0.05568266  0.51599754    -0.12220
C729        C  0.70350652  0.03399889  0.51106362     0.01430
C730        C  0.69584990  0.02964169  0.48921420    -0.10750
C731        C  0.69680796  0.04613249  0.47242417     0.03920
C732        C  0.70451805  0.06750039  0.47795028    -0.10170
H733        H  0.71692240  0.05967302  0.53272167     0.09510
H734        H  0.68980003  0.01318027  0.48493121     0.07040
H735        H  0.70505693  0.08033398  0.46520682     0.06890
C736        C  0.65727570  0.92633911  0.55375654     0.03930
C737        C  0.67380049  0.94296768  0.55280946    -0.12220
C738        C  0.66856699  0.96487313  0.54573906     0.01430
C739        C  0.64636499  0.96953461  0.53903300    -0.10750
C740        C  0.62962885  0.95297924  0.54024370     0.03920
C741        C  0.63531033  0.93162942  0.54792652    -0.10170
H742        H  0.69083891  0.93854947  0.55709187     0.09510
H743        H  0.64186012  0.98612875  0.53342642     0.07040
H744        H  0.62256046  0.91882874  0.54904537     0.06890
O745        O  0.44132610  0.01968682  0.51040184    -0.87550
C746        C  0.50152063  0.01453377  0.53963632     0.88480
Mg747      Mg  0.41438644  0.03484744  0.52817219     1.58150
O748        O  0.47286783  0.96441072  0.53480406    -0.87280
O749        O  0.45030060  0.98791997  0.49434073    -0.74610
C750        C  0.41648502  0.98716931  0.62757102     0.93530
O751        O  0.46498872  0.05156155  0.54594928    -0.74420
O752        O  0.40710218  0.00323198  0.61726976    -0.81930
Mg753      Mg  0.47151697  0.03838508  0.51023615     1.57960
C754        C  0.46663300  0.91951902  0.58358858     0.93450
O755        O  0.47849069  0.02729031  0.47384874    -0.80190
H756        H  0.45722325  0.94170625  0.51595572    -0.05540
C757        C  0.46887112  0.99506157  0.59473534     0.88390
O758        O  0.40075880  0.99953182  0.53617924    -0.74700
O759        O  0.48822411  0.01046983  0.52429077    -0.87470
O760        O  0.48130744  0.92924706  0.57156540    -0.80280
C761        C  0.53370259  0.96193885  0.53104063     0.93570
C762        C  0.48931676  0.01204441  0.46363459     0.93420
Mg763      Mg  0.43479049  0.96102905  0.58104695     1.57950
O764        O  0.42761598  0.97212387  0.61739805    -0.80200
O765        O  0.44192823  0.94780614  0.54560499    -0.74440
O766        O  0.52314490  0.97275332  0.51598559    -0.80280
O767        O  0.45441520  0.06911219  0.49681938    -0.81990
O768        O  0.38313801  0.02579339  0.57448517    -0.80310
C769        C  0.45757662  0.95085286  0.53151500     0.87860
O770        O  0.41810954  0.98898415  0.56684889    -0.87450
O771        O  0.46465526  0.97998343  0.58123682    -0.87560
O772        O  0.45541912  0.01120184  0.59810996    -0.74610
Mg773      Mg  0.48625490  0.98007995  0.50601417     1.57970
O774        O  0.52377903  0.95292249  0.54751451    -0.81990
H775        H  0.42080690  0.00403079  0.48917337    -0.05710
O776        O  0.43435380  0.03474649  0.55713601    -0.87260
H777        H  0.45038557  0.05712307  0.57609245    -0.05540
H778        H  0.39504279  0.96996890  0.55189633    -0.05710
C779        C  0.44972318  0.04820593  0.56039003     0.87830
C780        C  0.43685780  0.00413069  0.49752971     0.88420
C781        C  0.40423102  0.98551015  0.55185901     0.88470
H782        H  0.48470916  0.99481001  0.60348418    -0.05690
O783        O  0.50452470  0.00114958  0.55591639    -0.74720
Mg784      Mg  0.41986156  0.01903405  0.58555193     1.58000
H785        H  0.51035177  0.03026034  0.53954593    -0.05710
C786        C  0.44054339  0.08038899  0.50826711     0.93450
O787        O  0.38517475  0.04980469  0.54655777    -0.81950
C788        C  0.37361999  0.03842787  0.56019526     0.93510
O789        O  0.49810668  0.99558233  0.47381726    -0.81930
Mg790      Mg  0.49240891  0.96571082  0.56430149     1.58180
O791        O  0.42636759  0.07085838  0.52095362    -0.80270
O792        O  0.45217548  0.93056838  0.59454162    -0.81960
O793        O  0.42401897  0.98049467  0.06914002    -0.87550
C794        C  0.44322502  0.04486429  0.06910664     0.88480
Mg795      Mg  0.44652984  0.95394716  0.07595433     1.58150
O796        O  0.43403680  0.02241414  0.01622933    -0.87280
O797        O  0.40140300  0.99070628  0.04203808    -0.74610
C798        C  0.53651604  0.97927060  0.01640078     0.93530
O799        O  0.46165471  0.00447804  0.09798487    -0.74420
O800        O  0.53064611  0.96596896  0.03190715    -0.81930
Mg801      Mg  0.42378762  0.00752984  0.09222187     1.57960
C802        C  0.47587963  0.03069828  0.96439712     0.93450
O803        O  0.38569112  0.01056309  0.08818752    -0.80190
H804        H  0.41397830  0.00667360  0.99466416    -0.05540
C805        C  0.49753716  0.02373962  0.03773218     0.88390
O806        O  0.45043748  0.94775878  0.03822716    -0.74700
O807        O  0.42991725  0.02951331  0.06520526    -0.87470
O808        O  0.46422050  0.04203288  0.97819916    -0.80280
C809        C  0.42169061  0.08146059  0.02444782     0.93570
C810        C  0.37092536  0.02057055  0.07648714     0.93420
Mg811      Mg  0.48387034  0.99263170  0.00062346     1.57950
O812        O  0.52228727  0.99061184  0.00525026    -0.80200
O813        O  0.44604914  0.99550830  0.99431936    -0.74440
O814        O  0.41028099  0.06664150  0.03464298    -0.80280
O815        O  0.41891441  0.98499658  0.12228747    -0.81990
O816        O  0.49667495  0.93274535  0.05805034    -0.80310
C817        C  0.43067835  0.00842955  0.00137334     0.87860
O818        O  0.47734711  0.97027554  0.02732089    -0.87450
O819        O  0.48291648  0.01954286  0.02371652    -0.87560
O820        O  0.50563914  0.00880171  0.05054977    -0.74610
Mg821      Mg  0.40679947  0.02849314  0.03799787     1.57970
O822        O  0.43788534  0.07596694  0.01178884    -0.81990
H823        H  0.40279924  0.95923818  0.05457740    -0.05710
O824        O  0.47329107  0.97744169  0.07599994    -0.87260
H825        H  0.49386111  0.99385087  0.09647516    -0.05540
H826        H  0.46270763  0.94853704  0.00663430    -0.05710
C827        C  0.47693721  0.99170600  0.09050249     0.87830
C828        C  0.40904075  0.97613458  0.05552850     0.88420
C829        C  0.46376328  0.95515855  0.02339246     0.88470
H830        H  0.50313071  0.04078669  0.03953917    -0.05690
O831        O  0.45645797  0.05239946  0.05428011    -0.74720
Mg832      Mg  0.50043366  0.97091483  0.05432239     1.58000
H833        H  0.44412350  0.05158001  0.08583503    -0.05710
C834        C  0.43193946  0.96928118  0.12829783     0.93450
O835        O  0.46891821  0.92399238  0.08090051    -0.81950
C836        C  0.48512453  0.91815981  0.06845672     0.93510
O837        O  0.37637072  0.03278754  0.05996607    -0.81930
Mg838      Mg  0.46059176  0.04615150  0.01662453     1.58180
O839        O  0.44350649  0.95815978  0.11426838    -0.80270
O840        O  0.48876341  0.01497741  0.97062110    -0.81960
O841        O  0.67469920  0.77309613  0.06487419    -0.87550
C842        C  0.69618105  0.77308704  0.00156748     0.88480
Mg843      Mg  0.69693955  0.77916670  0.09167608     1.58150
O844        O  0.68444316  0.72050687  0.02297771    -0.87280
O845        O  0.65169074  0.74670679  0.05384012    -0.74610
C846        C  0.78601646  0.71751221  0.06702533     0.93530
O847        O  0.71331243  0.80201355  0.04181538    -0.74420
O848        O  0.78038711  0.73367746  0.07961465    -0.81930
Mg849      Mg  0.67546623  0.79642773  0.03796374     1.57960
C850        C  0.72385868  0.66694388  0.01530956     0.93450
O851        O  0.63720966  0.79289769  0.03473567    -0.80190
H852        H  0.66319612  0.69969148  0.03819325    -0.05540
C853        C  0.74892399  0.73935495  0.02227365     0.88390
O854        O  0.70011792  0.74131597  0.09757387    -0.74700
O855        O  0.68194097  0.76948944  0.01617611    -0.87470
O856        O  0.71326548  0.68156159  0.00392548    -0.80280
C857        C  0.67359518  0.72934415  0.96378651     0.93570
C858        C  0.62255600  0.78174849  0.02405031     0.93420
Mg859      Mg  0.73300904  0.70271945  0.05330357     1.57950
O860        O  0.77141685  0.70611692  0.05646397    -0.80200
O861        O  0.69504214  0.69763160  0.04973079    -0.74440
O862        O  0.66252913  0.74070047  0.97799676    -0.80280
O863        O  0.67072543  0.82631633  0.06018518    -0.81990
O864        O  0.74640991  0.75956127  0.11284570    -0.80310
C865        C  0.68019501  0.70562879  0.03674159     0.87860
O866        O  0.72693002  0.72981043  0.07520829    -0.87450
O867        O  0.73373012  0.72586883  0.02628796    -0.87560
O868        O  0.75650541  0.75257648  0.03706498    -0.74610
Mg869      Mg  0.65799276  0.74314966  0.01612957     1.57970
O870        O  0.68858278  0.71547039  0.96976332    -0.81990
H871        H  0.65283560  0.75855281  0.08554727    -0.05710
O872        O  0.72391769  0.77899165  0.06835904    -0.87260
H873        H  0.74499479  0.80049656  0.05387847    -0.05540
H874        H  0.71150189  0.70938686  0.09667352    -0.05710
C875        C  0.72810418  0.79417818  0.05493963     0.87830
C876        C  0.65939372  0.75970193  0.06876980     0.88420
C877        C  0.71308806  0.72615789  0.09017506     0.88470
H878        H  0.75543958  0.74043086  0.00547729    -0.05690
O879        O  0.70875500  0.75773067  0.99389419    -0.74720
Mg880      Mg  0.75056089  0.75645750  0.07478502     1.58000
H881        H  0.69844516  0.78997458  0.99561157    -0.05710
C882        C  0.68331627  0.83189208  0.07632759     0.93450
O883        O  0.71935384  0.78344593  0.12161907    -0.81950
C884        C  0.73499726  0.77020304  0.12734889     0.93510
O885        O  0.62818854  0.76591298  0.01107360    -0.81930
Mg886      Mg  0.71127490  0.71984230  0.99964415     1.58180
O887        O  0.69419107  0.81757523  0.08783088    -0.80270
O888        O  0.73713755  0.67249517  0.03096069    -0.81960
C889        C  0.74752421  0.07311315  0.04325147     0.03930
C890        C  0.73167622  0.05588477  0.04215129    -0.12220
C891        C  0.73819521  0.03348297  0.04572376     0.01430
C892        C  0.76101653  0.02860683  0.04956838    -0.10750
C893        C  0.77689263  0.04591262  0.05033785     0.03920
C894        C  0.76976056  0.06801735  0.04796513    -0.10170
H895        H  0.71433276  0.05999082  0.03886603     0.09510
H896        H  0.76648169  0.01143350  0.05130373     0.07040
H897        H  0.78192376  0.08142008  0.04869910     0.06890
C898        C  0.70444552  0.98232176  0.06310042     0.03930
C899        C  0.72106453  0.99897758  0.06235904    -0.12220
C900        C  0.72118434  0.01531236  0.04546429     0.01430
C901        C  0.70465316  0.01462633  0.02876327    -0.10750
C902        C  0.68801386  0.99802614  0.02888508     0.03920
C903        C  0.68801544  0.98205234  0.04621250    -0.10170
H904        H  0.73394354  0.99938124  0.07506628     0.09510
H905        H  0.70460900  0.02722825  0.01577076     0.07040
H906        H  0.67508480  0.96944512  0.04656467     0.06890
C907        C  0.71306235  0.95447083  0.11978762     0.03930
C908        C  0.71131335  0.97088800  0.10316259    -0.12220
C909        C  0.70459680  0.96514338  0.08133733     0.01430
C910        C  0.69834790  0.94280527  0.07704816    -0.10750
C911        C  0.70077362  0.92603001  0.09348238     0.03920
C912        C  0.70892128  0.93212753  0.11453459    -0.10170
H913        H  0.71468307  0.98812604  0.10743421     0.09510
H914        H  0.69217807  0.93826770  0.06070762     0.07040
H915        H  0.71149251  0.91953054  0.12728227     0.06890
C916        C  0.65807842  0.00357438  0.97260237     0.03930
C917        C  0.63595662  0.99991872  0.97926137    -0.12220
C918        C  0.63085092  0.99419858  0.00122441     0.01430
C919        C  0.64779903  0.99346015  0.01734520    -0.10750
C920        C  0.67016600  0.99790092  0.01140592     0.03920
C921        C  0.67520519  0.00254852  0.98879103    -0.10170
H922        H  0.62253178  0.00121300  0.96714921     0.09510
H923        H  0.64339502  0.98992091  0.03452253     0.07040
H924        H  0.69239206  0.00515529  0.98374469     0.06890
O925        O  0.72614192  0.01923220  0.76549420    -0.87550
C926        C  0.72684355  0.95558701  0.78704006     0.88480
Mg927      Mg  0.73226520  0.04659212  0.78699641     1.58150
O928        O  0.67403969  0.97687799  0.77598648    -0.87280
O929        O  0.69972793  0.00759624  0.74278907    -0.74610
C930        C  0.67241165  0.02238150  0.87750547     0.93530
O931        O  0.75580950  0.99681427  0.80401387    -0.74420
O932        O  0.68878100  0.03468642  0.87178822    -0.81930
Mg933      Mg  0.74987000  0.99248584  0.76635798     1.57960
C934        C  0.62127295  0.97014200  0.81697129     0.93450
O935        O  0.74596440  0.98900533  0.72825097    -0.80190
H936        H  0.65294986  0.99230617  0.75511503    -0.05540
C937        C  0.69426252  0.97739117  0.84026261     0.88390
O938        O  0.69454562  0.05207249  0.79076318    -0.74700
O939        O  0.72308390  0.97031824  0.77298155    -0.87470
O940        O  0.63530639  0.95855243  0.80585039    -0.80280
C941        C  0.68195339  0.91762437  0.76546516     0.93570
C942        C  0.73478832  0.97819208  0.71371450     0.93420
Mg943      Mg  0.65726809  0.00821982  0.82464700     1.57950
O944        O  0.66102439  0.01208197  0.86275687    -0.80200
O945        O  0.65188526  0.00411951  0.78685042    -0.74440
O946        O  0.69361032  0.93142489  0.75412490    -0.80280
O947        O  0.77987615  0.01485078  0.76149174    -0.81990
O948        O  0.71371207  0.06864760  0.83708283    -0.80310
C949        C  0.65929313  0.99087354  0.77196886     0.87860
O950        O  0.68402232  0.03008081  0.81815924    -0.87450
O951        O  0.68041262  0.98114975  0.82530252    -0.87560
O952        O  0.70747812  0.99239486  0.84749284    -0.74610
Mg953      Mg  0.69643176  0.96987516  0.74937779     1.57970
O954        O  0.66889995  0.92389711  0.78101316    -0.81990
H955        H  0.71108210  0.03950729  0.74356627    -0.05710
O956        O  0.73314220  0.02380537  0.81446725    -0.87260
H957        H  0.75497207  0.00950883  0.83540029    -0.05540
H958        H  0.66289092  0.05102091  0.80291961    -0.05710
C959        C  0.74835803  0.01033691  0.81861127     0.87830
C960        C  0.71254854  0.02279395  0.75026920     0.88420
C961        C  0.67982811  0.04477643  0.80422105     0.88470
H962        H  0.69565493  0.96063889  0.84688568    -0.05690
O963        O  0.71168291  0.94821300  0.80001798    -0.74720
Mg964      Mg  0.71097391  0.03022467  0.84139989     1.58000
H965        H  0.74370320  0.94922133  0.78875185    -0.05710
C966        C  0.78523826  0.03171180  0.77321390     0.93450
O967        O  0.73683611  0.07696685  0.80900272    -0.81950
C968        C  0.72452663  0.08276974  0.82532000     0.93510
O969        O  0.71914812  0.96495840  0.71944018    -0.81930
Mg970      Mg  0.67378935  0.95412862  0.80323495     1.58180
O971        O  0.77033088  0.04322085  0.78317726    -0.80270
O972        O  0.62723383  0.98604066  0.82966427    -0.81960
C973        C  0.02718104  0.99781891  0.83773575     0.03930
C974        C  0.00916236  0.99456598  0.82326915    -0.12220
C975        C  0.98711159  0.99769343  0.83094447     0.01430
C976        C  0.98352327  0.00210380  0.85386974    -0.10750
C977        C  0.00179948  0.00570148  0.86841710     0.03920
C978        C  0.02339804  0.00519699  0.85940595    -0.10170
H979        H  0.01242409  0.99012452  0.80605388     0.09510
H980        H  0.96660093  0.00239459  0.86024743     0.07040
H981        H  0.03770848  0.00914395  0.86977647     0.06890
C982        C  0.93496283  0.01479838  0.79863956     0.03930
C983        C  0.95165966  0.01381884  0.81518294    -0.12220
C984        C  0.96814749  0.99702807  0.81481489     0.01430
C985        C  0.96754587  0.98084978  0.79780795    -0.10750
C986        C  0.95099753  0.98142824  0.78110765     0.03920
C987        C  0.93477204  0.99847054  0.78171893    -0.10170
H988        H  0.95215413  0.02646724  0.82808451     0.09510
H989        H  0.98035302  0.96804426  0.79727819     0.07040
H990        H  0.92210228  0.99919583  0.76881331     0.06890
C991        C  0.88000811  0.04638802  0.79158242     0.03930
C992        C  0.89562842  0.02888193  0.79322546    -0.12220
C993        C  0.91820635  0.03329137  0.79842300     0.01430
C994        C  0.92470669  0.05552339  0.80283202    -0.10750
C995        C  0.90905235  0.07296395  0.80127394     0.03920
C996        C  0.88707225  0.06833629  0.79510125    -0.10170
H997        H  0.89013593  0.01184757  0.79066708     0.09510
H998        H  0.94192341  0.05938970  0.80687157     0.07040
H999        H  0.87521466  0.08197292  0.79345826     0.06890
C1000       C  0.95766809  0.92632391  0.74990322     0.03930
C1001       C  0.95412797  0.93330971  0.72790501    -0.12220
C1002       C  0.94833070  0.95536881  0.72308483     0.01430
C1003       C  0.94706942  0.97112399  0.74038751    -0.10750
C1004       C  0.95125111  0.96464732  0.76268884     0.03920
C1005       C  0.95617973  0.94203318  0.76726845    -0.10170
H1006       H  0.95554713  0.92136354  0.71438271     0.09510
H1007       H  0.94327934  0.98836222  0.73637550     0.07040
H1008       H  0.95864377  0.93656604  0.78433764     0.06890
O1009       O  0.93067023  0.73101399  0.76468772    -0.87550
C1010       C  0.93072423  0.79490951  0.78549619     0.88480
Mg1011     Mg  0.92406594  0.70396811  0.78637229     1.58150
O1012       O  0.98317228  0.77183816  0.77580420    -0.87280
O1013       O  0.95756385  0.74157407  0.74219353    -0.74610
C1014       C  0.98351628  0.72717319  0.87719015     0.93530
O1015       O  0.90114461  0.75415886  0.80257912    -0.74420
O1016       O  0.96711492  0.71492958  0.87138394    -0.81930
Mg1017     Mg  0.90745141  0.75819526  0.76491058     1.57960
C1018       C  0.03568761  0.77918198  0.81647672     0.93450
O1019       O  0.91176269  0.76182714  0.72666837    -0.80190
H1020       H  0.00344252  0.75549735  0.75494954    -0.05540
C1021       C  0.96270344  0.77250567  0.83965102     0.88390
O1022       O  0.96171749  0.69756264  0.79067034    -0.74700
O1023       O  0.93453546  0.77996267  0.77169468    -0.87470
O1024       O  0.02156042  0.79050761  0.80521329    -0.80280
C1025       C  0.97625655  0.83148065  0.76432258     0.93570
C1026       C  0.92367485  0.77275315  0.71276551     0.93420
Mg1027     Mg  0.99949012  0.74120375  0.82470386     1.57950
O1028       O  0.99523875  0.73770689  0.86281535    -0.80200
O1029       O  0.00525373  0.74459471  0.78697434    -0.74440
O1030       O  0.96602199  0.81684247  0.75282686    -0.80280
O1031       O  0.87712502  0.73620000  0.75990583    -0.81990
O1032       O  0.94089221  0.68210015  0.83679023    -0.80310
C1033       C  0.99763786  0.75753208  0.77190722     0.87860
O1034       O  0.97247949  0.71932253  0.81816206    -0.87450
O1035       O  0.97641748  0.76837805  0.82470429    -0.87560
O1036       O  0.94927709  0.75779375  0.84705460    -0.74610
Mg1037     Mg  0.96186727  0.77906967  0.74873375     1.57970
O1038       O  0.98843212  0.82570625  0.78075841    -0.81990
H1039       H  0.94485918  0.71018221  0.74277357    -0.05710
O1040       O  0.92340223  0.72703036  0.81364608    -0.87260
H1041       H  0.90163842  0.74191502  0.83417821    -0.05540
H1042       H  0.99317473  0.69762911  0.80337629    -0.05710
C1043       C  0.90835679  0.74077416  0.81746648     0.87830
C1044       C  0.94408215  0.72691260  0.74950138     0.88420
C1045       C  0.97643538  0.70443316  0.80436001     0.88470
H1046       H  0.96163996  0.78932365  0.84612370    -0.05690
O1047       O  0.94562127  0.80190481  0.79895406    -0.74720
Mg1048     Mg  0.94502315  0.72014245  0.84095265     1.58000
H1049       H  0.91398855  0.80170064  0.78664754    -0.05710
C1050       C  0.87152291  0.71968437  0.77206690     0.93450
O1051       O  0.91880657  0.67373499  0.80820005    -0.81950
C1052       C  0.93061054  0.66777614  0.82483692     0.93510
O1053       O  0.94001452  0.78486603  0.71879014    -0.81930
Mg1054     Mg  0.98334366  0.79525173  0.80264492     1.58180
O1055       O  0.88614204  0.70807020  0.78236556    -0.80270
O1056       O  0.02971143  0.76360313  0.82966044    -0.81960
C1057       C  0.95139120  0.79631947  0.11825222     0.03930
C1058       C  0.95252675  0.77927390  0.10211681    -0.12220
C1059       C  0.95393284  0.78466122  0.07918689     0.01430
C1060       C  0.95484091  0.80728363  0.07267136    -0.10750
C1061       C  0.95365645  0.82423951  0.08875743     0.03920
C1062       C  0.95137092  0.81855310  0.11119822    -0.10170
H1063       H  0.95266749  0.76195201  0.10734634     0.09510
H1064       H  0.95609786  0.81170754  0.05517617     0.07040
H1065       H  0.95013149  0.83177885  0.12349709     0.06890
C1066       C  0.97060558  0.75047318  0.02822721     0.03930
C1067       C  0.97030422  0.76711346  0.04481298    -0.12220
C1068       C  0.95429091  0.76677758  0.06200806     0.01430
C1069       C  0.93818358  0.74971156  0.06241910    -0.10750
C1070       C  0.93784350  0.73308550  0.04586026     0.03920
C1071       C  0.95425958  0.73351019  0.02897414    -0.10170
H1072       H  0.98249269  0.78046188  0.04436061     0.09510
H1073       H  0.92575348  0.74951429  0.07557658     0.07040
H1074       H  0.95422965  0.72061001  0.01632205     0.06890
C1075       C  0.99885616  0.74379281  0.97153554     0.03930
C1076       C  0.98241533  0.74447026  0.98821747    -0.12220
C1077       C  0.98797764  0.75070178  0.01022286     0.01430
C1078       C  0.01028371  0.75695226  0.01492437    -0.10750
C1079       C  0.02704437  0.75572197  0.99837973     0.03920
C1080       C  0.02105910  0.74876020  0.97687496    -0.10170
H1081       H  0.96526467  0.74064287  0.98386746     0.09510
H1082       H  0.01480357  0.76216183  0.03161651     0.07040
H1083       H  0.03373145  0.74738238  0.96401282     0.06890
C1084       C  0.88095531  0.70449805  0.04986667     0.03930
C1085       C  0.89762551  0.72102905  0.05042554    -0.12220
C1086       C  0.92018593  0.71547203  0.04601328     0.01430
C1087       C  0.92573517  0.69298864  0.04156139    -0.10750
C1088       C  0.90906159  0.67646063  0.04118877     0.03920
C1089       C  0.88682606  0.68247951  0.04503575    -0.10170
H1090       H  0.89292329  0.73817771  0.05377972     0.09510
H1091       H  0.94299865  0.68825619  0.03874860     0.07040
H1092       H  0.87391536  0.66978838  0.04451872     0.06890
O1093       O  0.97327931  0.96529994  0.03396483    -0.87550
C1094       C  0.96994138  0.99642977  0.09343040     0.88480
Mg1095     Mg  0.98791750  0.98123954  0.00594250     1.58150
O1096       O  0.91903046  0.99012217  0.06598141    -0.87280
O1097       O  0.94239867  0.94882153  0.04500833    -0.74610
C1098       C  0.94256097  0.08181781  0.00823175     0.93530
O1099       O  0.00759040  0.99992166  0.05580578    -0.74420
O1100       O  0.95926780  0.07181134  0.99973203    -0.81930
Mg1101     Mg  0.99284270  0.96513878  0.06334539     1.57960
C1102       C  0.87428227  0.03944900  0.05827064     0.93450
O1103       O  0.97966143  0.92930310  0.06975149    -0.80190
H1104       H  0.89688017  0.97075000  0.05018233    -0.05540
C1105       C  0.95062181  0.04909843  0.06064012     0.88390
O1106       O  0.95286841  0.99012675  0.99293256    -0.74700
O1107       O  0.96571412  0.98112415  0.08019041    -0.87470
O1108       O  0.88377777  0.02744331  0.07314178    -0.80280
C1109       C  0.91726255  0.98887610  0.12667703     0.93570
C1110       C  0.96554910  0.92031258  0.08287814     0.93420
Mg1111     Mg  0.91631002  0.03554778  0.02661803     1.57950
O1112       O  0.92727185  0.07155114  0.01887755    -0.80200
O1113       O  0.90317416  0.00010234  0.03436220    -0.74440
O1114       O  0.92895615  0.97412710  0.11674314    -0.80280
O1115       O  0.02276352  0.95008338  0.04603599    -0.81990
O1116       O  0.98329471  0.03035939  0.97527738    -0.80310
C1117       C  0.90590202  0.98637234  0.05041261     0.87860
O1118       O  0.94419562  0.02150274  0.00977040    -0.87450
O1119       O  0.93509498  0.03610748  0.05644887    -0.87560
O1120       O  0.96695951  0.05180559  0.04734160    -0.74610
Mg1121     Mg  0.93576841  0.96246197  0.08058808     1.57970
O1122       O  0.90748394  0.00455649  0.11618450    -0.81990
H1123       H  0.95713603  0.94303490  0.01495354    -0.05710
O1124       O  0.99030924  0.01086559  0.02529415    -0.87260
H1125       H  0.01417116  0.02916037  0.03988050    -0.05540
H1126       H  0.92433016  0.00752283  0.98684739    -0.05710
C1127       C  0.00448996  0.01392871  0.04007622     0.87830
C1128       C  0.95777399  0.95201021  0.03062982     0.88420
C1129       C  0.93991262  0.00670647  0.99599961     0.88470
H1130       H  0.95066837  0.05783995  0.07642517    -0.05690
O1131       O  0.95623212  0.01236171  0.09694726    -0.74720
Mg1132     Mg  0.97482785  0.03979591  0.01182402     1.58000
H1133       H  0.98590036  0.99645773  0.10199939    -0.05710
C1134       C  0.03386863  0.96026625  0.03108038     0.93450
O1135       O  0.00109568  0.99777606  0.97519936    -0.81950
C1136       C  0.99400756  0.01505809  0.96502412     0.93510
O1137       O  0.95322753  0.93248350  0.09505237    -0.81930
Mg1138     Mg  0.92047610  0.02027384  0.08449570     1.58180
O1139       O  0.02425187  0.97264130  0.01662204    -0.80270
O1140       O  0.88604553  0.04946720  0.04378782    -0.81960
O1141       O  0.97793106  0.46939282  0.02712311    -0.87550
C1142       C  0.97820896  0.49051945  0.09069944     0.88480
Mg1143     Mg  0.98402975  0.49161882  0.00027063     1.58150
O1144       O  0.92495540  0.48026765  0.06961849    -0.87280
O1145       O  0.95071602  0.44731524  0.03817064    -0.74610
C1146       C  0.92364956  0.58154800  0.02443309     0.93530
O1147       O  0.00642198  0.50790656  0.05007579    -0.74420
O1148       O  0.93959271  0.57565765  0.01168822    -0.81930
Mg1149     Mg  0.00119769  0.47011103  0.05401581     1.57960
C1150       C  0.87274107  0.52265655  0.07823310     0.93450
O1151       O  0.99753708  0.43199838  0.05794501    -0.80190
H1152       H  0.90269618  0.45968295  0.05562063    -0.05540
C1153       C  0.94543831  0.54439496  0.06954593     0.88390
O1154       O  0.94598549  0.49479060  0.99468124    -0.74700
O1155       O  0.97424160  0.47662796  0.07591912    -0.87470
O1156       O  0.88705662  0.51096186  0.08895337    -0.80280
C1157       C  0.93370427  0.46819955  0.12866824     0.93570
C1158       C  0.98590248  0.41741837  0.06825380     0.93420
Mg1159     Mg  0.90817162  0.52903566  0.03922056     1.57950
O1160       O  0.91240065  0.56702470  0.03519356    -0.80200
O1161       O  0.90164191  0.49135797  0.04350706    -0.74440
O1162       O  0.94475164  0.45714895  0.11419151    -0.80280
O1163       O  0.03128001  0.46522898  0.03141544    -0.81990
O1164       O  0.96432493  0.54112016  0.97836583    -0.80310
C1165       C  0.90942836  0.47640289  0.05649236     0.87860
O1166       O  0.93469120  0.52196154  0.01673957    -0.87450
O1167       O  0.93181821  0.52926028  0.06591192    -0.87560
O1168       O  0.95834184  0.55184025  0.05438146    -0.74610
Mg1169     Mg  0.94725157  0.45334113  0.07589806     1.57970
O1170       O  0.92060487  0.48407367  0.12308817    -0.81990
H1171       H  0.96287782  0.44784809  0.00654731    -0.05710
O1172       O  0.98357520  0.51855084  0.02333981    -0.87260
H1173       H  0.00422188  0.53975451  0.03860945    -0.05540
H1174       H  0.91400603  0.50621851  0.99575321    -0.05710
C1175       C  0.99840583  0.52275520  0.03711351     0.87830
C1176       C  0.96412523  0.45445392  0.02329448     0.88420
C1177       C  0.93087643  0.50788022  0.00205501     0.88470
H1178       H  0.94683592  0.55105854  0.08627115    -0.05690
O1179       O  0.96317791  0.50337674  0.09850828    -0.74720
Mg1180     Mg  0.96161873  0.54540768  0.01659979     1.58000
H1181       H  0.99518957  0.49225339  0.09666621    -0.05710
C1182       C  0.03703360  0.47833356  0.01569841     0.93450
O1183       O  0.98814828  0.51370867  0.96994910    -0.81950
C1184       C  0.97525938  0.52961056  0.96416478     0.93510
O1185       O  0.96944346  0.42321089  0.08037673    -0.81930
Mg1186     Mg  0.92536445  0.50704563  0.09291526     1.58180
O1187       O  0.02272336  0.48950508  0.00442756    -0.80270
O1188       O  0.87896877  0.53514774  0.06225767    -0.81960
C1189       C  0.94643307  0.57326756  0.84066921     0.03930
C1190       C  0.94974062  0.56800273  0.86319013    -0.12220
C1191       C  0.95791367  0.54699919  0.86970044     0.01430
C1192       C  0.96082023  0.53051464  0.85301709    -0.10750
C1193       C  0.95505697  0.53478506  0.83050624     0.03920
C1194       C  0.94870597  0.55662666  0.82444485    -0.10170
H1195       H  0.94647380  0.58073384  0.87559359     0.09510
H1196       H  0.96698302  0.51417509  0.85768287     0.07040
H1197       H  0.94589248  0.56086324  0.80708299     0.06890
C1198       C  0.97122503  0.48237477  0.79752558     0.03930
C1199       C  0.97139963  0.49958489  0.81358017    -0.12220
C1200       C  0.95508428  0.51657188  0.81337860     0.01430
C1201       C  0.93835521  0.51602210  0.79680049    -0.10750
C1202       C  0.93785979  0.49909588  0.78052963     0.03920
C1203       C  0.95439878  0.48236737  0.78107420    -0.10170
H1204       H  0.98431648  0.49975954  0.82623230     0.09510
H1205       H  0.92561175  0.52888820  0.79652075     0.07040
H1206       H  0.95420215  0.46930808  0.76859409     0.06890
C1207       C  0.02771732  0.45329970  0.80270713     0.03930
C1208       C  0.01117448  0.46992489  0.80281521    -0.12220
C1209       C  0.98877044  0.46458145  0.79772965     0.01430
C1210       C  0.98336382  0.44217796  0.79262232    -0.10750
C1211       C  0.00004750  0.42560425  0.79254371     0.03920
C1212       C  0.02208362  0.43135516  0.79748594    -0.10170
H1213       H  0.01593677  0.48700969  0.80630040     0.09510
H1214       H  0.96623810  0.43749160  0.78911594     0.07040
H1215       H  0.03499821  0.41860590  0.79728055     0.06890
C1216       C  0.88143265  0.50542632  0.75152347     0.03930
C1217       C  0.89789760  0.50489214  0.76820110    -0.12220
C1218       C  0.92016109  0.49906813  0.76290246     0.01430
C1219       C  0.92540601  0.49344637  0.74060279    -0.10750
C1220       C  0.90886454  0.49412510  0.72388493     0.03920
C1221       C  0.88707563  0.50034395  0.72953651    -0.10170
H1222       H  0.89321640  0.50855289  0.78527475     0.09510
H1223       H  0.94239248  0.48908805  0.73607524     0.07040
H1224       H  0.87428624  0.50109777  0.71671073     0.06890
O1225       O  0.97496721  0.46391316  0.53615800    -0.87550
C1226       C  0.97022038  0.49514874  0.59523603     0.88480
Mg1227     Mg  0.98942197  0.48024960  0.50822055     1.58150
O1228       O  0.91961480  0.48847038  0.56763149    -0.87280
O1229       O  0.94383042  0.44738935  0.54650905    -0.74610
C1230       C  0.94081578  0.57988358  0.50763726     0.93530
O1231       O  0.00668803  0.50028193  0.55838004    -0.74420
O1232       O  0.95722997  0.56911525  0.49941576    -0.81930
Mg1233     Mg  0.99402718  0.46477125  0.56605212     1.57960
C1234       C  0.87378147  0.53699355  0.56010976     0.93450
O1235       O  0.98239679  0.42818322  0.57266814    -0.80190
H1236       H  0.89782113  0.46853997  0.55209124    -0.05540
C1237       C  0.94963520  0.54874457  0.56101344     0.88390
O1238       O  0.95401517  0.48798992  0.49492968    -0.74700
O1239       O  0.96614611  0.47945221  0.58239601    -0.87470
O1240       O  0.88417375  0.52631098  0.57538385    -0.80280
C1241       C  0.91794675  0.48707504  0.62820196     0.93570
C1242       C  0.96772309  0.41861817  0.58483127     0.93420
Mg1243     Mg  0.91551929  0.53324943  0.52735560     1.57950
O1244       O  0.92562458  0.56987501  0.51879007    -0.80200
O1245       O  0.90365345  0.49773057  0.53587311    -0.74440
O1246       O  0.92892948  0.47186349  0.61813377    -0.80280
O1247       O  0.02563602  0.45174281  0.54988161    -0.81990
O1248       O  0.98104390  0.52650159  0.47602877    -0.80310
C1249       C  0.90654966  0.48432479  0.55213474     0.87860
O1250       O  0.94387123  0.51922070  0.51135677    -0.87450
O1251       O  0.93446789  0.53515354  0.55731286    -0.87560
O1252       O  0.96589371  0.55150312  0.54757694    -0.74610
Mg1253     Mg  0.93634910  0.46057793  0.58200987     1.57970
O1254       O  0.90883056  0.50328009  0.61788242    -0.81990
H1255       H  0.95932066  0.44155831  0.51687232    -0.05710
O1256       O  0.99017684  0.51014983  0.52709241    -0.87260
H1257       H  0.01236862  0.52975001  0.54255328    -0.05540
H1258       H  0.92458586  0.50387002  0.48879224    -0.05710
C1259       C  0.00352351  0.51401907  0.54243206     0.87830
C1260       C  0.95959072  0.45053431  0.53254380     0.88420
C1261       C  0.94021894  0.50393941  0.49790747     0.88470
H1262       H  0.94941997  0.55804107  0.57648192    -0.05690
O1263       O  0.95668478  0.51136332  0.59793855    -0.74720
Mg1264     Mg  0.97380509  0.53809724  0.51245934     1.58000
H1265       H  0.98608137  0.49541693  0.60392721    -0.05710
C1266       C  0.03586425  0.46137630  0.53396151     0.93450
O1267       O  0.00340716  0.49689153  0.47774698    -0.81950
C1268       C  0.99292915  0.51154352  0.46652760     0.93510
O1269       O  0.95366891  0.43006593  0.59589805    -0.81930
Mg1270     Mg  0.92092266  0.51901319  0.58584034     1.58180
O1271       O  0.02561663  0.47280610  0.51922956    -0.80270
O1272       O  0.88381144  0.54574464  0.54355515    -0.81960
C1273       C  0.49979672  0.82324777  0.05102430     0.03930
C1274       C  0.52206686  0.81707240  0.04756317    -0.12220
C1275       C  0.52783618  0.79509630  0.04236595     0.01430
C1276       C  0.51106323  0.77870301  0.04132363    -0.10750
C1277       C  0.48849501  0.78436938  0.04542774     0.03920
C1278       C  0.48301987  0.80685166  0.04998923    -0.10170
H1279       H  0.53507139  0.82963994  0.04850239     0.09510
H1280       H  0.51569164  0.76157097  0.03779029     0.07040
H1281       H  0.46572511  0.81167694  0.05242575     0.06890
C1282       C  0.43765052  0.74993084  0.06264061     0.03930
C1283       C  0.45414946  0.76668201  0.06203795    -0.12220
C1284       C  0.47074583  0.76686130  0.04534790     0.01430
C1285       C  0.47053065  0.75006142  0.02892221    -0.10750
C1286       C  0.45424374  0.73312170  0.02921656     0.03920
C1287       C  0.43793917  0.73319666  0.04614922    -0.10170
H1288       H  0.45416254  0.77959011  0.07468375     0.09510
H1289       H  0.48318870  0.75002958  0.01598543     0.07040
H1290       H  0.42550778  0.72007120  0.04653426     0.06890
C1291       C  0.38152110  0.74375573  0.09235638     0.03930
C1292       C  0.39790470  0.74399773  0.07553581    -0.12220
C1293       C  0.42023540  0.74978681  0.08053957     0.01430
C1294       C  0.42576590  0.75540361  0.10275930    -0.10750
C1295       C  0.40932937  0.75520162  0.11950332     0.03920
C1296       C  0.38738446  0.74937796  0.11418619    -0.10170
H1297       H  0.39308026  0.74016477  0.05854064     0.09510
H1298       H  0.44284182  0.75945052  0.10719438     0.07040
H1299       H  0.37471886  0.74938519  0.12714340     0.06890
C1300       C  0.45849555  0.70272789  0.97340455     0.03930
C1301       C  0.45740588  0.71999730  0.98932286    -0.12220
C1302       C  0.45466079  0.71497586  0.01222284     0.01430
C1303       C  0.45215713  0.69247001  0.01881304    -0.10750
C1304       C  0.45344589  0.67535038  0.00292629     0.03920
C1305       C  0.45749048  0.68056001  0.98064447    -0.10170
H1306       H  0.45811723  0.73723964  0.98388408     0.09510
H1307       H  0.44957720  0.68822187  0.03620239     0.07040
H1308       H  0.45877863  0.66712468  0.96857355     0.06890
O1309       O  0.42058405  0.48864238  0.06543773    -0.87550
C1310       C  0.45037575  0.54896754  0.05906687     0.88480
Mg1311     Mg  0.43731026  0.46098209  0.08030843     1.58150
O1312       O  0.44388191  0.51926089  0.00990386    -0.87280
O1313       O  0.40369472  0.49810350  0.03420085    -0.74610
C1314       C  0.53651570  0.46238805  0.03173943     0.93530
O1315       O  0.45728725  0.51181927  0.09666352    -0.74420
O1316       O  0.52622470  0.45286409  0.04768336    -0.81930
Mg1317     Mg  0.42171975  0.51899736  0.08376567     1.57960
C1318       C  0.49218610  0.51196233  0.96423240     0.93450
O1319       O  0.38509672  0.52598172  0.07351096    -0.80190
H1320       H  0.42438345  0.50356731  0.98774488    -0.05540
C1321       C  0.50405111  0.51517745  0.04016503     0.88390
O1322       O  0.44516271  0.44762125  0.04496825    -0.74700
O1323       O  0.43541531  0.53508746  0.05557931    -0.87470
O1324       O  0.47978763  0.52635868  0.97383539    -0.80280
C1325       C  0.44177027  0.57978817  0.00716428     0.93570
C1326       C  0.37446769  0.53721634  0.05888796     0.93420
Mg1327     Mg  0.48994317  0.48108342  0.00622877     1.57950
O1328       O  0.52629981  0.47380777  0.01695258    -0.80200
O1329       O  0.45423189  0.48822853  0.99330565    -0.74440
O1330       O  0.42710185  0.57017218  0.01926212    -0.80280
O1331       O  0.40899437  0.50306060  0.11459354    -0.81990
O1332       O  0.48386864  0.42939140  0.07136177    -0.80310
C1333       C  0.44018763  0.50389948  0.99657173     0.87860
O1334       O  0.47586762  0.46471189  0.03440092    -0.87450
O1335       O  0.49056828  0.51108463  0.02498255    -0.87560
O1336       O  0.50751836  0.50156406  0.05618199    -0.74610
Mg1337     Mg  0.41586491  0.53368390  0.02612047     1.57970
O1338       O  0.45569286  0.56853871  0.99574485    -0.81990
H1339       H  0.39854472  0.46866401  0.05027473    -0.05710
O1340       O  0.46702472  0.48020792  0.08084846    -0.87260
H1341       H  0.48666974  0.49589567  0.10284645    -0.05540
H1342       H  0.46072144  0.44180982  0.01536706    -0.05710
C1343       C  0.47092128  0.49571179  0.09394518     0.87830
C1344       C  0.40717471  0.48451211  0.05022018     0.88420
C1345       C  0.46080674  0.45096255  0.03093855     0.88470
H1346       H  0.51277299  0.53097837  0.04006908    -0.05690
O1347       O  0.46613775  0.55230232  0.04516223    -0.74720
Mg1348     Mg  0.49500629  0.46593488  0.06422409     1.58000
H1349       H  0.45030464  0.55818387  0.07459778    -0.05710
C1350       C  0.41708407  0.48714411  0.12598291     0.93450
O1351       O  0.45489821  0.43083509  0.09445021    -0.81950
C1352       C  0.46931291  0.41968174  0.08353945     0.93510
O1353       O  0.38431084  0.54661028  0.04258709    -0.81930
Mg1354     Mg  0.47340210  0.53851147  0.00994573     1.58180
O1355       O  0.42880390  0.47202506  0.11657313    -0.80270
O1356       O  0.50354845  0.49806999  0.97558039    -0.81960
C1357       C  0.49864390  0.50437369  0.86810029     0.03930
C1358       C  0.52086887  0.50025578  0.86236957    -0.12220
C1359       C  0.52708668  0.49699458  0.84018729     0.01430
C1360       C  0.51072723  0.49770125  0.82339947    -0.10750
C1361       C  0.48813183  0.50178637  0.82883737     0.03920
C1362       C  0.48222952  0.50531774  0.85136663    -0.10170
H1363       H  0.53345357  0.49931530  0.87539038     0.09510
H1364       H  0.51563838  0.49521943  0.80617311     0.07040
H1365       H  0.46491597  0.50800500  0.85597217     0.06890
C1366       C  0.38024231  0.54488923  0.78833540     0.03930
C1367       C  0.39718102  0.52875063  0.78910149    -0.12220
C1368       C  0.41951644  0.53502554  0.79311895     0.01430
C1369       C  0.42457796  0.55786490  0.79619112    -0.10750
C1370       C  0.40747847  0.57407451  0.79553351     0.03920
C1371       C  0.38538358  0.56726482  0.79201304    -0.10170
H1372       H  0.39285398  0.51133632  0.78685598     0.09510
H1373       H  0.44175228  0.56306469  0.79856110     0.07040
H1374       H  0.37204402  0.57956706  0.79182463     0.06890
C1375       C  0.45422827  0.48371945  0.77820689     0.03930
C1376       C  0.47071826  0.48451879  0.79493417    -0.12220
C1377       C  0.47071263  0.50152956  0.81111183     0.01430
C1378       C  0.45400685  0.51808278  0.81035448    -0.10750
C1379       C  0.43739157  0.51768320  0.79374078     0.03920
C1380       C  0.43760617  0.50038262  0.77785039    -0.10170
H1381       H  0.48367986  0.47186491  0.79538084     0.09510
H1382       H  0.45388764  0.53122851  0.82276636     0.07040
H1383       H  0.42473104  0.49993259  0.76515402     0.06890
C1384       C  0.45071032  0.45403381  0.72190377     0.03930
C1385       C  0.44894458  0.47052395  0.73854863    -0.12220
C1386       C  0.45473141  0.46577708  0.76090390     0.01430
C1387       C  0.46097093  0.44374894  0.76656304    -0.10750
C1388       C  0.46252559  0.42728193  0.74999836     0.03920
C1389       C  0.45834271  0.43276372  0.72777567    -0.10170
H1390       H  0.44340845  0.48711702  0.73393591     0.09510
H1391       H  0.46399500  0.43920550  0.78380995     0.07040
H1392       H  0.45995889  0.41995213  0.71509730     0.06890
C1393       C  0.20440526  0.54437733  0.47339057     0.03930
C1394       C  0.20517683  0.56688430  0.47944149    -0.12220
C1395       C  0.20512656  0.57374408  0.50170766     0.01430
C1396       C  0.20434684  0.55736860  0.51854005    -0.10750
C1397       C  0.20398986  0.53446761  0.51293588     0.03920
C1398       C  0.20399785  0.52808814  0.49027386    -0.10170
H1399       H  0.20577308  0.57944098  0.46641553     0.09510
H1400       H  0.20378959  0.56235518  0.53590093     0.07040
H1401       H  0.20405591  0.51055604  0.48584416     0.06890
C1402       C  0.15960244  0.42658979  0.55378935     0.03930
C1403       C  0.13773870  0.43181822  0.54746639    -0.12220
C1404       C  0.13186791  0.45339412  0.54077791     0.01430
C1405       C  0.14838517  0.47010458  0.54030615    -0.10750
C1406       C  0.17052227  0.46542980  0.54711825     0.03920
C1407       C  0.17591121  0.44348783  0.55391000    -0.10170
H1408       H  0.12510689  0.41885456  0.54769274     0.09510
H1409       H  0.14375865  0.48686079  0.53527245     0.07040
H1410       H  0.19287472  0.43931840  0.55870585     0.06890
C1411       C  0.24915770  0.49646892  0.62123023     0.03930
C1412       C  0.23250820  0.49648662  0.60472736    -0.12220
C1413       C  0.23778039  0.50206860  0.58248398     0.01430
C1414       C  0.26004320  0.50788186  0.57720143    -0.10750
C1415       C  0.27682361  0.50766305  0.59368448     0.03920
C1416       C  0.27118481  0.50183876  0.61556840    -0.10170
H1417       H  0.21545974  0.49253633  0.60935986     0.09510
H1418       H  0.26453280  0.51198092  0.56017087     0.07040
H1419       H  0.28405695  0.50134656  0.62831597     0.06890
C1420       C  0.22022525  0.50154810  0.56476152     0.03930
C1421       C  0.20405346  0.48444286  0.56432923    -0.12220
C1422       C  0.18784404  0.48343079  0.54725293     0.01430
C1423       C  0.18817733  0.49980815  0.53036132    -0.10750
C1424       C  0.20390310  0.51720841  0.53073887     0.03920
C1425       C  0.21975096  0.51801380  0.54800742    -0.10170
H1426       H  0.20412752  0.47186165  0.57731857     0.09510
H1427       H  0.17615314  0.49911861  0.51685464     0.07040
H1428       H  0.23184296  0.53146069  0.54826461     0.06890
O1429       O  0.22675352  0.51800313  0.76779252    -0.87550
C1430       C  0.22701531  0.45376530  0.78734702     0.88480
Mg1431     Mg  0.23358039  0.54463038  0.79006973     1.58150
O1432       O  0.17414049  0.47637361  0.77756459    -0.87280
O1433       O  0.20003828  0.50771119  0.74485309    -0.74610
C1434       C  0.17236954  0.52078402  0.87889429     0.93530
O1435       O  0.25522733  0.49419403  0.80579034    -0.74420
O1436       O  0.18800240  0.53397486  0.87312347    -0.81930
Mg1437     Mg  0.24988047  0.49092789  0.76788275     1.57960
C1438       C  0.12207911  0.46780473  0.81855951     0.93450
O1439       O  0.24615900  0.48782286  0.72982601    -0.80190
H1440       H  0.15281437  0.49171434  0.75686096    -0.05540
C1441       C  0.19455900  0.47575236  0.84166784     0.88390
O1442       O  0.19573662  0.55121859  0.79323664    -0.74700
O1443       O  0.22300511  0.46895988  0.77386841    -0.87470
O1444       O  0.13654358  0.45667327  0.80759122    -0.80280
C1445       C  0.18206141  0.41738025  0.76573623     0.93570
C1446       C  0.23469512  0.47751704  0.71514553     0.93420
Mg1447     Mg  0.15745480  0.50647299  0.82643734     1.57950
O1448       O  0.16142386  0.50943758  0.86459436    -0.80200
O1449       O  0.15148276  0.50309033  0.78872016    -0.74440
O1450       O  0.19220444  0.43209079  0.75417647    -0.80280
O1451       O  0.27981227  0.51329411  0.76302308    -0.81990
O1452       O  0.21453624  0.56664330  0.83922885    -0.80310
C1453       C  0.15913296  0.49015287  0.77371015     0.87860
O1454       O  0.18419595  0.52882847  0.81997678    -0.87450
O1455       O  0.18109747  0.47973886  0.82645597    -0.87560
O1456       O  0.20719544  0.49077641  0.84974887    -0.74610
Mg1457     Mg  0.19597053  0.46999103  0.75055708     1.57970
O1458       O  0.16986200  0.42282945  0.78224843    -0.81990
H1459       H  0.21228664  0.53925044  0.74640045    -0.05710
O1460       O  0.23306081  0.52136430  0.81692866    -0.87260
H1461       H  0.25337961  0.50504730  0.83783524    -0.05540
H1462       H  0.16375604  0.55044388  0.80461886    -0.05710
C1463       C  0.24754607  0.50707114  0.82086451     0.87830
C1464       C  0.21328700  0.52234116  0.75266972     0.88420
C1465       C  0.18054082  0.54383358  0.80616197     0.88470
H1466       H  0.19602458  0.45884557  0.84787102    -0.05690
O1467       O  0.21227440  0.44648333  0.80078639    -0.74720
Mg1468     Mg  0.21089884  0.52850010  0.84354860     1.58000
H1469       H  0.24380424  0.44706645  0.78828605    -0.05710
C1470       C  0.28586407  0.52876567  0.77618958     0.93450
O1471       O  0.23882515  0.57452540  0.81231473    -0.81950
C1472       C  0.22584023  0.58073931  0.82792102     0.93510
O1473       O  0.21830636  0.46510825  0.72052813    -0.81930
Mg1474     Mg  0.17461385  0.45282760  0.80446529     1.58180
O1475       O  0.27187520  0.53993037  0.78774176    -0.80270
O1476       O  0.12767101  0.48375248  0.83139465    -0.81960
C1477       C  0.12880129  0.75738933  0.34127658     0.03930
C1478       C  0.13438874  0.75500867  0.36377288    -0.12220
C1479       C  0.15558644  0.74750323  0.37028653     0.01430
C1480       C  0.17207613  0.74459061  0.35363726    -0.10750
C1481       C  0.16745089  0.74948921  0.33097803     0.03920
C1482       C  0.14535866  0.75513082  0.32490155    -0.10170
H1483       H  0.12158093  0.75792961  0.37623339     0.09510
H1484       H  0.18860249  0.73896521  0.35838344     0.07040
H1485       H  0.14086347  0.75713098  0.30749586     0.06890
C1486       C  0.22000695  0.73259590  0.29874068     0.03930
C1487       C  0.20257609  0.73262229  0.31450577    -0.12220
C1488       C  0.18555637  0.74893288  0.31373907     0.01430
C1489       C  0.18606718  0.76512079  0.29657763    -0.10750
C1490       C  0.20315202  0.76516720  0.28040163     0.03920
C1491       C  0.22011344  0.74890626  0.28181214    -0.10170
H1492       H  0.20229580  0.71986297  0.32732596     0.09510
H1493       H  0.17310836  0.77775086  0.29579880     0.07040
H1494       H  0.23341500  0.74881282  0.26955146     0.06890
C1495       C  0.21068430  0.79205784  0.22318400     0.03930
C1496       C  0.20917852  0.77590669  0.24009932    -0.12220
C1497       C  0.20356102  0.78220702  0.26210678     0.01430
C1498       C  0.19843020  0.80485244  0.26646265    -0.10750
C1499       C  0.20064333  0.82126425  0.24964547     0.03920
C1500       C  0.20756544  0.81457983  0.22836244    -0.10170
H1501       H  0.21170786  0.75847476  0.23597568     0.09510
H1502       H  0.19322397  0.80979224  0.28303949     0.07040
H1503       H  0.20971202  0.82693378  0.21529722     0.06890
C1504       C  0.24834169  0.67581538  0.29842173     0.03930
C1505       C  0.23188887  0.69232501  0.30083904    -0.12220
C1506       C  0.23770162  0.71504667  0.29914911     0.01430
C1507       C  0.26045749  0.72086871  0.29672896    -0.10750
C1508       C  0.27699278  0.70429057  0.29352168     0.03920
C1509       C  0.27028936  0.68187738  0.29344871    -0.10170
H1510       H  0.21465806  0.68745671  0.30351259     0.09510
H1511       H  0.26511740  0.73831355  0.29722910     0.07040
H1512       H  0.28240477  0.66880046  0.29016264     0.06890
O1513       O  0.22390683  0.51044223  0.25975832    -0.87550
C1514       C  0.21851055  0.45063065  0.29025422     0.88480
Mg1515     Mg  0.23909568  0.53811599  0.27559586     1.58150
O1516       O  0.16910751  0.48088478  0.28559603    -0.87280
O1517       O  0.19191442  0.50139501  0.24416053    -0.74610
C1518       C  0.19508978  0.53789142  0.37666782     0.93530
O1519       O  0.25648669  0.48768822  0.29541214    -0.74420
O1520       O  0.20991883  0.54741970  0.36487386    -0.81930
Mg1521     Mg  0.24256223  0.48027208  0.26030891     1.57960
C1522       C  0.12510225  0.48838310  0.33580998     0.93450
O1523       O  0.23057213  0.47305474  0.22437957    -0.80190
H1524       H  0.14592146  0.49635377  0.26699704    -0.05540
C1525       C  0.20156472  0.48481750  0.34431447     0.88390
O1526       O  0.20386925  0.55165104  0.28416285    -0.74700
O1527       O  0.21465951  0.46440020  0.27524942    -0.87470
O1528       O  0.13413555  0.47413995  0.32283263    -0.80280
C1529       C  0.16546317  0.42013600  0.28369490     0.93570
C1530       C  0.21522673  0.46201982  0.21462619     0.93420
Mg1531     Mg  0.16719481  0.51893724  0.33148591     1.57950
O1532       O  0.17991991  0.52623582  0.36734791    -0.80200
O1533       O  0.15252836  0.51175002  0.29650840    -0.74440
O1534       O  0.17749476  0.42963384  0.26889838    -0.80280
O1535       O  0.27349796  0.49638748  0.24619174    -0.81990
O1536       O  0.23247494  0.57023798  0.32190938    -0.80310
C1537       C  0.15543302  0.49612684  0.28238803     0.87860
O1538       O  0.19463958  0.53523946  0.31573549    -0.87450
O1539       O  0.18590763  0.48887918  0.33136531    -0.87560
O1540       O  0.21768406  0.49843183  0.34706217    -0.74610
Mg1541     Mg  0.18418573  0.46608958  0.25716380     1.57970
O1542       O  0.15472442  0.43174332  0.29783561    -0.81990
H1543       H  0.20830545  0.53041900  0.23792597    -0.05710
O1544       O  0.24047796  0.51918309  0.30542826    -0.87260
H1545       H  0.26316546  0.50366140  0.32455726    -0.05540
H1546       H  0.17485501  0.55777593  0.30078340    -0.05710
C1547       C  0.25384660  0.50375664  0.30906192     0.87830
C1548       C  0.20830218  0.51468183  0.24680229     0.88420
C1549       C  0.19050954  0.54865396  0.30047558     0.88470
H1550       H  0.20175941  0.46908994  0.35322671    -0.05690
O1551       O  0.20498780  0.44748859  0.30639463    -0.74720
Mg1552     Mg  0.22524386  0.53386920  0.33363871     1.58000
H1553       H  0.23402741  0.44127721  0.28984544    -0.05710
C1554       C  0.28466238  0.51098942  0.25676975     0.93450
O1555       O  0.25351898  0.56884352  0.29135709    -0.81950
C1556       C  0.24376158  0.57986725  0.30660076     0.93510
O1557       O  0.19922663  0.45296652  0.22525076    -0.81930
Mg1558     Mg  0.17001249  0.46158222  0.31497010     1.58180
O1559       O  0.27504851  0.52605818  0.26830556    -0.80270
O1560       O  0.13723937  0.50190493  0.34670040    -0.81960
O1561       O  0.93467969  0.73984362  0.26020147    -0.87550
C1562       C  0.93836885  0.79944204  0.29110474     0.88480
Mg1563     Mg  0.91944465  0.71220914  0.27635207     1.58150
O1564       O  0.98893350  0.77078103  0.28700287    -0.87280
O1565       O  0.96680304  0.74933724  0.24521879    -0.74610
C1566       C  0.96365006  0.71218492  0.37645174     0.93530
O1567       O  0.90171819  0.76191183  0.29583313    -0.74420
O1568       O  0.95107395  0.70030077  0.36422316    -0.81930
Mg1569     Mg  0.91577775  0.76980906  0.26067806     1.57960
C1570       C  0.03227756  0.76430973  0.33664529     0.93450
O1571       O  0.92797955  0.77784438  0.22470930    -0.80190
H1572       H  0.01298127  0.75661847  0.26854133    -0.05540
C1573       C  0.95613090  0.76468000  0.34549026     0.88390
O1574       O  0.95500467  0.69884012  0.28457767    -0.74700
O1575       O  0.94308738  0.78612551  0.27599566    -0.87470
O1576       O  0.02247401  0.77866220  0.32436279    -0.80280
C1577       C  0.99120688  0.83136106  0.28474839     0.93570
C1578       C  0.94345940  0.78907664  0.21530524     0.93420
Mg1579     Mg  0.99147437  0.73234555  0.33211924     1.57950
O1580       O  0.97793575  0.72524192  0.36761553    -0.80200
O1581       O  0.00645729  0.74025743  0.29754787    -0.74440
O1582       O  0.98094295  0.82108720  0.26922556    -0.80280
O1583       O  0.88563237  0.75311858  0.24605872    -0.81990
O1584       O  0.92851864  0.67909030  0.32080405    -0.80310
C1585       C  0.00324872  0.75613970  0.28374770     0.87860
O1586       O  0.96462633  0.71556238  0.31577185    -0.87450
O1587       O  0.97156924  0.76145626  0.33206729    -0.87560
O1588       O  0.94065977  0.75037425  0.34845136    -0.74610
Mg1589     Mg  0.97391000  0.78475444  0.25838813     1.57970
O1590       O  0.99957402  0.82124418  0.30142470    -0.81990
H1591       H  0.95086327  0.72016593  0.23856924    -0.05710
O1592       O  0.91836449  0.73083960  0.30616005    -0.87260
H1593       H  0.89547494  0.74608098  0.32522696    -0.05540
H1594       H  0.98462361  0.69345530  0.30048940    -0.05710
C1595       C  0.90476757  0.74606305  0.30973168     0.87830
C1596       C  0.95053373  0.73584968  0.24750183     0.88420
C1597       C  0.96877550  0.70227152  0.30046646     0.88470
H1598       H  0.95562604  0.78019745  0.35475045    -0.05690
O1599       O  0.95109440  0.80237340  0.30786400    -0.74720
Mg1600     Mg  0.93435470  0.71517105  0.33388772     1.58000
H1601       H  0.92261020  0.80832815  0.29037707    -0.05710
C1602       C  0.87382509  0.73863524  0.25604487     0.93450
O1603       O  0.90459498  0.68208554  0.29311021    -0.81950
C1604       C  0.91590856  0.66996286  0.30630926     0.93510
O1605       O  0.95892271  0.79770008  0.22691859    -0.81930
Mg1606     Mg  0.98627101  0.78973141  0.31678234     1.58180
O1607       O  0.88325396  0.72404458  0.26839881    -0.80270
O1608       O  0.02091825  0.75018706  0.34769808    -0.81960
O1609       O  0.68459246  0.53099348  0.32031365    -0.87550
C1610       C  0.74853643  0.51013073  0.31987856     0.88480
Mg1611     Mg  0.65773016  0.50900266  0.32717533     1.58150
O1612       O  0.72597922  0.52114693  0.26755156    -0.87280
O1613       O  0.69558286  0.55383403  0.29374512    -0.74610
C1614       C  0.68099993  0.42025478  0.26508520     0.93530
O1615       O  0.70797112  0.49294365  0.34888487    -0.74420
O1616       O  0.66853481  0.42577377  0.28139450    -0.81930
Mg1617     Mg  0.71167133  0.53081674  0.34323919     1.57960
C1618       C  0.73320612  0.48121826  0.21435869     0.93450
O1619       O  0.71464665  0.56933509  0.33929764    -0.80190
H1620       H  0.71037073  0.54251164  0.24711153    -0.05540
C1621       C  0.72642403  0.45682048  0.28691496     0.88390
O1622       O  0.65145269  0.50590025  0.28948864    -0.74700
O1623       O  0.73357574  0.52404922  0.31630897    -0.87470
O1624       O  0.74463724  0.49200053  0.22870893    -0.80280
C1625       C  0.78570980  0.53139664  0.27520587     0.93570
C1626       C  0.72638316  0.58326697  0.32822985     0.93420
Mg1627     Mg  0.69521379  0.47289406  0.25040177     1.57950
O1628       O  0.69171014  0.43481031  0.25380719    -0.80200
O1629       O  0.69885588  0.51072274  0.24511158    -0.74440
O1630       O  0.77138281  0.54249108  0.28639666    -0.80280
O1631       O  0.68958741  0.53584551  0.37329549    -0.81990
O1632       O  0.63557482  0.45980221  0.30770772    -0.80310
C1633       C  0.71196542  0.52548211  0.25293080     0.87860
O1634       O  0.67354428  0.47907153  0.27763326    -0.87450
O1635       O  0.72240451  0.47204891  0.27345011    -0.87560
O1636       O  0.71158800  0.44917871  0.30009172    -0.74610
Mg1637     Mg  0.73334227  0.54754524  0.28976316     1.57970
O1638       O  0.77921676  0.51643391  0.26168434    -0.81990
H1639       H  0.66367463  0.55230438  0.30530627    -0.05710
O1640       O  0.68084389  0.48192883  0.32673174    -0.87260
H1641       H  0.69632484  0.46112878  0.34786804    -0.05540
H1642       H  0.65196834  0.49477858  0.25749250    -0.05710
C1643       C  0.69482710  0.47796846  0.34149203     0.87830
C1644       C  0.68059993  0.54603115  0.30667061     0.88420
C1645       C  0.65863569  0.49303063  0.27419100     0.88470
H1646       H  0.74326815  0.45027297  0.28797262    -0.05690
O1647       O  0.75578824  0.49715776  0.30467389    -0.74720
Mg1648     Mg  0.67384626  0.45541389  0.30421716     1.58000
H1649       H  0.75520597  0.50852511  0.33660270    -0.05710
C1650       C  0.67376349  0.52307630  0.37935918     0.93450
O1651       O  0.62774301  0.48662631  0.33234609    -0.81950
C1652       C  0.62167193  0.47100422  0.31934733     0.93510
O1653       O  0.73927491  0.57715542  0.31250715    -0.81930
Mg1654     Mg  0.74923055  0.49419382  0.26687479     1.58180
O1655       O  0.66222466  0.51181952  0.36545417    -0.80270
O1656       O  0.71737818  0.46825588  0.22010573    -0.81960
C1657       C  0.77636094  0.74540797  0.24902025     0.03930
C1658       C  0.76921952  0.74660937  0.22684655    -0.12220
C1659       C  0.74692152  0.75072399  0.22154383     0.01430
C1660       C  0.73095506  0.75191228  0.23863786    -0.10750
C1661       C  0.73745332  0.74938833  0.26113599     0.03920
C1662       C  0.76036672  0.74651622  0.26623110    -0.10170
H1663       H  0.78142847  0.74560325  0.21349045     0.09510
H1664       H  0.71355952  0.75463462  0.23435661     0.07040
H1665       H  0.76577113  0.74576560  0.28347398     0.06890
C1666       C  0.72033675  0.74996767  0.27918751     0.03930
C1667       C  0.72077253  0.73402205  0.29636917    -0.12220
C1668       C  0.70419197  0.73366776  0.31306561     0.01430
C1669       C  0.68734226  0.75023058  0.31268365    -0.10750
C1670       C  0.68679467  0.76671559  0.29581293     0.03920
C1671       C  0.70325427  0.76610688  0.27898562    -0.10170
H1672       H  0.73407365  0.72172362  0.29658547     0.09510
H1673       H  0.67466772  0.75031848  0.32554660     0.07040
H1674       H  0.70284037  0.77825442  0.26558962     0.06890
C1675       C  0.65796035  0.82303724  0.28694565     0.03930
C1676       C  0.67439967  0.80627751  0.28793660    -0.12220
C1677       C  0.66918038  0.78458807  0.29551819     0.01430
C1678       C  0.64710368  0.78023837  0.30263932    -0.10750
C1679       C  0.63031207  0.79676584  0.30102762     0.03920
C1680       C  0.63596401  0.81791831  0.29281106    -0.10170
H1681       H  0.69141398  0.81046659  0.28340922     0.09510
H1682       H  0.64274359  0.76385806  0.30889155     0.07040
H1683       H  0.62322651  0.83074814  0.29145852     0.06890
C1684       C  0.70082638  0.70490489  0.37011433     0.03930
C1685       C  0.70965139  0.68389654  0.36484263    -0.12220
C1686       C  0.71444472  0.67815949  0.34281410     0.01430
C1687       C  0.71233631  0.69428831  0.32591411    -0.10750
C1688       C  0.70489887  0.71610665  0.33089476     0.03920
C1689       C  0.69838406  0.72093548  0.35301063    -0.10170
H1690       H  0.71185370  0.67147498  0.37784241     0.09510
H1691       H  0.71593114  0.68955381  0.30884399     0.07040
H1692       H  0.69184508  0.73727653  0.35710917     0.06890
O1693       O  0.47463721  0.28671239  0.80561680    -0.87550
C1694       C  0.46979726  0.25551154  0.74655321     0.88480
Mg1695     Mg  0.48930693  0.27100167  0.83377777     1.58150
O1696       O  0.41907701  0.26163792  0.77478153    -0.87280
O1697       O  0.44313493  0.30293693  0.79571975    -0.74610
C1698       C  0.44238924  0.17077060  0.83419183     0.93530
O1699       O  0.50704178  0.25029748  0.78382736    -0.74420
O1700       O  0.45914658  0.18066437  0.84276635    -0.81930
Mg1701     Mg  0.49361326  0.28549211  0.77569714     1.57960
C1702       C  0.37495858  0.21161914  0.78244218     0.93450
O1703       O  0.48229322  0.32141707  0.76815829    -0.80190
H1704       H  0.39699727  0.28143551  0.79021064    -0.05540
C1705       C  0.45075369  0.20238096  0.78128797     0.88390
O1706       O  0.45426112  0.26306108  0.84734326    -0.74700
O1707       O  0.46564478  0.27090769  0.75969662    -0.87470
O1708       O  0.38478452  0.22214607  0.76673571    -0.80280
C1709       C  0.41706841  0.26285371  0.71445040     0.93570
C1710       C  0.46739703  0.33136803  0.75666037     0.93420
Mg1711     Mg  0.41682345  0.21758770  0.81536998     1.57950
O1712       O  0.42725115  0.18125566  0.82344731    -0.80200
O1713       O  0.40394704  0.25282360  0.80706161    -0.74440
O1714       O  0.42783416  0.27826444  0.72441238    -0.80280
O1715       O  0.52452989  0.29937503  0.79168649    -0.81990
O1716       O  0.48344481  0.22364572  0.86615908    -0.80310
C1717       C  0.40612234  0.26582279  0.79037988     0.87860
O1718       O  0.44506738  0.23137703  0.83139646    -0.87450
O1719       O  0.43536785  0.21571555  0.78511659    -0.87560
O1720       O  0.46702656  0.19968713  0.79470710    -0.74610
Mg1721     Mg  0.43542475  0.28965572  0.76042769     1.57970
O1722       O  0.40824538  0.24657487  0.72485029    -0.81990
H1723       H  0.45916175  0.30917930  0.82494358    -0.05710
O1724       O  0.49094159  0.24070475  0.81540449    -0.87260
H1725       H  0.51353855  0.22127498  0.80020006    -0.05540
H1726       H  0.42558863  0.24626807  0.85409976    -0.05710
C1727       C  0.50432162  0.23684505  0.80007724     0.87830
C1728       C  0.45922977  0.30007545  0.80935857     0.88420
C1729       C  0.44108217  0.24660268  0.84481206     0.88470
H1730       H  0.45071447  0.19325600  0.76572366    -0.05690
O1731       O  0.45647604  0.23921118  0.74384367    -0.74720
Mg1732     Mg  0.47521678  0.21246649  0.82989349     1.58000
H1733       H  0.48550160  0.25559183  0.73761448    -0.05710
C1734       C  0.53531153  0.28988157  0.80730758     0.93450
O1735       O  0.50264269  0.25517574  0.86481479    -0.81950
C1736       C  0.49428496  0.23916593  0.87595748     0.93510
O1737       O  0.45186535  0.32071732  0.74685489    -0.81930
Mg1738     Mg  0.42111568  0.23106279  0.75654511     1.58180
O1739       O  0.52552071  0.27860798  0.82248373    -0.80270
O1740       O  0.38562407  0.20504079  0.79957197    -0.81960
C1741       C  0.70986432  0.17696285  0.84159473     0.03930
C1742       C  0.70376016  0.18242759  0.86340245    -0.12220
C1743       C  0.69823179  0.20434492  0.86902208     0.01430
C1744       C  0.69871616  0.22111700  0.85261026    -0.10750
C1745       C  0.70452269  0.21594475  0.83034059     0.03920
C1746       C  0.71013634  0.19366003  0.82506238    -0.10170
H1747       H  0.70340353  0.16954116  0.87613737     0.09510
H1748       H  0.69497319  0.23816366  0.85735725     0.07040
H1749       H  0.71428472  0.18909836  0.80807222     0.06890
C1750       C  0.68799137  0.26745268  0.79640709     0.03930
C1751       C  0.68811837  0.25053193  0.81271733    -0.12220
C1752       C  0.70457039  0.23367748  0.81269906     0.01430
C1753       C  0.72094145  0.23382603  0.79574434    -0.10750
C1754       C  0.72113435  0.25056424  0.77915013     0.03920
C1755       C  0.70460479  0.26734703  0.77979622    -0.10170
H1756       H  0.67530220  0.25050361  0.82548018     0.09510
H1757       H  0.73359629  0.22088971  0.79550257     0.07040
H1758       H  0.70462439  0.28042585  0.76729600     0.06890
C1759       C  0.77789305  0.24656739  0.74982968     0.03930
C1760       C  0.76101344  0.24472798  0.76616011    -0.12220
C1761       C  0.73872080  0.25091897  0.76135359     0.01430
C1762       C  0.73339362  0.25771316  0.73940803    -0.10750
C1763       C  0.75014467  0.25939411  0.72309342     0.03920
C1764       C  0.77228215  0.25458459  0.72861536    -0.10170
H1765       H  0.76541850  0.23891970  0.78270299     0.09510
H1766       H  0.71622791  0.26124904  0.73481205     0.07040
H1767       H  0.78512301  0.25631657  0.71595954     0.06890
C1768       C  0.65908433  0.32419629  0.79205870     0.03930
C1769       C  0.63691962  0.31813346  0.79606562    -0.12220
C1770       C  0.63123266  0.29604368  0.80066181     0.01430
C1771       C  0.64785129  0.27948391  0.80082443    -0.10750
C1772       C  0.67036457  0.28511652  0.79659040     0.03920
C1773       C  0.67583809  0.30767080  0.79229332    -0.10170
H1774       H  0.62389120  0.33075755  0.79548632     0.09510
H1775       H  0.64313770  0.26227096  0.80375983     0.07040
H1776       H  0.69305758  0.31244475  0.78939918     0.06890
C1777       C  0.24896284  0.07296729  0.54317786     0.03930
C1778       C  0.27112196  0.06713104  0.54741846    -0.12220
C1779       C  0.27723930  0.04490330  0.55074087     0.01430
C1780       C  0.26083672  0.02816500  0.55018368    -0.10750
C1781       C  0.23823534  0.03371044  0.54600552     0.03920
C1782       C  0.23244531  0.05632981  0.54243214    -0.10170
H1783       H  0.28383256  0.08003239  0.54784504     0.09510
H1784       H  0.26576981  0.01088828  0.55241810     0.07040
H1785       H  0.21520002  0.06104343  0.53947063     0.06890
C1786       C  0.18769612  0.99893132  0.52840012     0.03930
C1787       C  0.20420429  0.01571279  0.52883347    -0.12220
C1788       C  0.22082566  0.01591058  0.54550306     0.01430
C1789       C  0.22068153  0.99911499  0.56193602    -0.10750
C1790       C  0.20435617  0.98224968  0.56183988     0.03920
C1791       C  0.18807951  0.98216802  0.54491352    -0.10170
H1792       H  0.20406360  0.02870674  0.51623755     0.09510
H1793       H  0.23317022  0.99931076  0.57504578     0.07040
H1794       H  0.17547417  0.96919490  0.54483137     0.06890
C1795       C  0.19916264  0.92687140  0.59309462     0.03930
C1796       C  0.19895892  0.93481379  0.61507149    -0.12220
C1797       C  0.20320668  0.95714420  0.62003611     0.01430
C1798       C  0.20488970  0.97261377  0.60253647    -0.10750
C1799       C  0.20349224  0.96549930  0.58017100     0.03920
C1800       C  0.20135097  0.94246162  0.57554003    -0.10170
H1801       H  0.19677822  0.92314752  0.62873464     0.09510
H1802       H  0.20728710  0.99012458  0.60636763     0.07040
H1803       H  0.20188138  0.93679448  0.55840020     0.06890
C1804       C  0.13066681  0.99443307  0.50025495     0.03930
C1805       C  0.14741789  0.99429787  0.51669112    -0.12220
C1806       C  0.16984128  0.99909776  0.51098123     0.01430
C1807       C  0.17506433  0.00390919  0.48849267    -0.10750
C1808       C  0.15817920  0.00399690  0.47219392     0.03920
C1809       C  0.13616687  0.99935699  0.47821035    -0.10170
H1810       H  0.14289201  0.99083498  0.53385297     0.09510
H1811       H  0.19220019  0.00702527  0.48355181     0.07040
H1812       H  0.12321040  0.99926487  0.46552648     0.06890
C1813       C  0.77806159  0.54660774  0.55029362     0.03930
C1814       C  0.77231196  0.56797934  0.54280202    -0.12220
C1815       C  0.75022003  0.57332053  0.53760749     0.01430
C1816       C  0.73359835  0.55689099  0.53884536    -0.10750
C1817       C  0.73901062  0.53490041  0.54540676     0.03920
C1818       C  0.76134065  0.53009410  0.55157937    -0.10170
H1819       H  0.78503835  0.58079261  0.54150493     0.09510
H1820       H  0.71644850  0.56148029  0.53523284     0.07040
H1821       H  0.76593396  0.51342869  0.55690301     0.06890
C1822       C  0.69910080  0.42715764  0.59215955     0.03930
C1823       C  0.70162704  0.43408962  0.61435115    -0.12220
C1824       C  0.70822428  0.45579519  0.61943860     0.01430
C1825       C  0.70993357  0.47175296  0.60244106    -0.10750
C1826       C  0.70587858  0.46572844  0.58007933     0.03920
C1827       C  0.70136884  0.44314945  0.57501122    -0.10170
H1828       H  0.69912430  0.42231625  0.62788102     0.09510
H1829       H  0.71383611  0.48886234  0.60677777     0.07040
H1830       H  0.69973438  0.43806409  0.55775212     0.06890
C1831       C  0.70575710  0.48308519  0.56222835     0.03930
C1832       C  0.72183731  0.50019214  0.56208746    -0.12220
C1833       C  0.72146695  0.51708009  0.54572775     0.01430
C1834       C  0.70435131  0.51676310  0.52951974    -0.10750
C1835       C  0.68795567  0.49985741  0.52935630     0.03920
C1836       C  0.68899111  0.48302303  0.54574981    -0.10170
H1837       H  0.73463081  0.50035570  0.57486746     0.09510
H1838       H  0.70383178  0.52971397  0.51692652     0.07040
H1839       H  0.67662487  0.46984332  0.54580229     0.06890
C1840       C  0.63138636  0.49167654  0.50062140     0.03930
C1841       C  0.63670824  0.49756005  0.47870044    -0.12220
C1842       C  0.65808934  0.50517061  0.47315704     0.01430
C1843       C  0.67459766  0.50629645  0.48985764    -0.10750
C1844       C  0.66997044  0.49955091  0.51193965     0.03920
C1845       C  0.64807437  0.49244218  0.51717587    -0.10170
H1846       H  0.62390909  0.49663356  0.46591496     0.09510
H1847       H  0.69119558  0.51193023  0.48540100     0.07040
H1848       H  0.64375731  0.48804068  0.53417367     0.06890
O1849       O  0.67508763  0.27264784  0.56545348    -0.87550
C1850       C  0.69608171  0.27226089  0.50151410     0.88480
Mg1851     Mg  0.69722955  0.27939203  0.59222872     1.58150
O1852       O  0.68638842  0.21944641  0.52372515    -0.87280
O1853       O  0.65308177  0.24522650  0.55496161    -0.74610
C1854       C  0.78769156  0.21944055  0.56869795     0.93530
O1855       O  0.71330580  0.30207550  0.54218817    -0.74420
O1856       O  0.78142954  0.23545840  0.58113153    -0.81930
Mg1857     Mg  0.67560525  0.29568708  0.53810071     1.57960
C1858       C  0.72805432  0.16695378  0.51611629     0.93450
O1859       O  0.63766531  0.29168106  0.53409760    -0.80190
H1860       H  0.66592192  0.19769214  0.53867941    -0.05540
C1861       C  0.75032746  0.24022583  0.52319603     0.88390
O1862       O  0.70122860  0.24162364  0.59811861    -0.74700
O1863       O  0.68238974  0.26844036  0.51657827    -0.87470
O1864       O  0.71675538  0.18090985  0.50449374    -0.80280
C1865       C  0.67454546  0.22797960  0.46459444     0.93570
C1866       C  0.62300640  0.27990573  0.52414415     0.93420
Mg1867     Mg  0.73543725  0.20327334  0.55423636     1.57950
O1868       O  0.77384601  0.20762951  0.55761468    -0.80200
O1869       O  0.69771780  0.19704872  0.55049736    -0.74440
O1870       O  0.66304231  0.23806614  0.47937137    -0.80280
O1871       O  0.67004394  0.32593202  0.56005047    -0.81990
O1872       O  0.74714495  0.26060449  0.61422613    -0.80310
C1873       C  0.68265356  0.20436868  0.53738908     0.87860
O1874       O  0.72827920  0.23038971  0.57588760    -0.87450
O1875       O  0.73560435  0.22617238  0.52700983    -0.87560
O1876       O  0.75731214  0.25363189  0.53812597    -0.74610
Mg1877     Mg  0.65914863  0.24124177  0.51731840     1.57970
O1878       O  0.69069653  0.21525504  0.47021893    -0.81990
H1879       H  0.65359183  0.25790422  0.58634972    -0.05710
O1880       O  0.72422513  0.27959767  0.56907227    -0.87260
H1881       H  0.74493183  0.30138272  0.55448438    -0.05540
H1882       H  0.71236011  0.20962498  0.59657550    -0.05710
C1883       C  0.72817110  0.29471897  0.55550854     0.87830
C1884       C  0.66018427  0.25888610  0.56957562     0.88420
C1885       C  0.71416948  0.22653407  0.59052591     0.88470
H1886       H  0.75695125  0.24161928  0.50646568    -0.05690
O1887       O  0.70938075  0.25733200  0.49421879    -0.74720
Mg1888     Mg  0.75123068  0.25750518  0.57588547     1.58000
H1889       H  0.69726389  0.28900635  0.49485807    -0.05710
C1890       C  0.68186734  0.33196129  0.57661198     0.93450
O1891       O  0.72000422  0.28484681  0.62226781    -0.81950
C1892       C  0.73598413  0.27210503  0.62827285     0.93510
O1893       O  0.62861203  0.26304596  0.51251611    -0.81930
Mg1894     Mg  0.71326838  0.21955665  0.50028615     1.58180
O1895       O  0.69280590  0.31747355  0.58785908    -0.80270
O1896       O  0.74059822  0.17304778  0.53214607    -0.81960
O1897       O  0.94300988  0.23101880  0.33164616    -0.87550
C1898       C  0.00253006  0.23650330  0.30101774     0.88480
Mg1899     Mg  0.91507171  0.21646869  0.31576079     1.58150
O1900       O  0.97308020  0.28633986  0.30709873    -0.87280
O1901       O  0.95263400  0.26244070  0.34803637    -0.74610
C1902       C  0.91524774  0.26333834  0.21598284     0.93530
O1903       O  0.96524084  0.19923415  0.29517340    -0.74420
O1904       O  0.90440272  0.24889308  0.22716267    -0.81930
Mg1905     Mg  0.97298154  0.21212374  0.33064867     1.57960
C1906       C  0.96563195  0.33133323  0.25816722     0.93450
O1907       O  0.97993380  0.22334895  0.36712213    -0.80190
H1908       H  0.95774698  0.30875744  0.32661701    -0.05540
C1909       C  0.96795253  0.25549652  0.24761071     0.88390
O1910       O  0.90154789  0.25174043  0.30807836    -0.74700
O1911       O  0.98889531  0.24020416  0.31615031    -0.87470
O1912       O  0.98053890  0.32155393  0.26980861    -0.80280
C1913       C  0.03391910  0.28902021  0.30830093     0.93570
C1914       C  0.99176160  0.23821265  0.37670627     0.93420
Mg1915     Mg  0.93406213  0.28946686  0.26202182     1.57950
O1916       O  0.92733418  0.27785060  0.22576769    -0.80200
O1917       O  0.94164426  0.30276942  0.29736161    -0.74440
O1918       O  0.02456254  0.27668135  0.32294867    -0.80280
O1919       O  0.95721530  0.18061049  0.34386555    -0.81990
O1920       O  0.88228020  0.22323811  0.26911706    -0.80310
C1921       C  0.95773909  0.29974272  0.31097254     0.87860
O1922       O  0.91781292  0.26147965  0.27669191    -0.87450
O1923       O  0.96423947  0.27073203  0.26110578    -0.87560
O1924       O  0.95404892  0.23971697  0.24438304    -0.74610
Mg1925     Mg  0.98801782  0.27007449  0.33488599     1.57970
O1926       O  0.02220324  0.30015144  0.29454235    -0.81990
H1927       H  0.92317841  0.24652305  0.35360629    -0.05710
O1928       O  0.93356696  0.21526493  0.28546588    -0.87260
H1929       H  0.94928554  0.19321073  0.26585544    -0.05540
H1930       H  0.89524199  0.28093823  0.29190817    -0.05710
C1931       C  0.94912088  0.20211648  0.28155619     0.87830
C1932       C  0.93900949  0.24641300  0.34488559     0.88420
C1933       C  0.90439452  0.26532458  0.29196879     0.88470
H1934       H  0.98361382  0.25539715  0.23856574    -0.05690
O1935       O  0.00573190  0.25032425  0.28516220    -0.74720
Mg1936     Mg  0.91860261  0.23168557  0.25767856     1.58000
H1937       H  0.01168704  0.22088280  0.30105397    -0.05710
C1938       C  0.94145198  0.17007643  0.33434816     0.93450
O1939       O  0.88428044  0.20303253  0.29990197    -0.81950
C1940       C  0.87279758  0.21159208  0.28426695     0.93510
O1941       O  0.00146645  0.25364981  0.36582877    -0.81930
Mg1942     Mg  0.99208424  0.28560944  0.27740614     1.58180
O1943       O  0.92633146  0.18012709  0.32317498    -0.80270
O1944       O  0.95018507  0.32056443  0.24839621    -0.81960
C1945       C  0.95863005  0.32218249  0.59126267     0.03930
C1946       C  0.95930523  0.30556932  0.57469016    -0.12220
C1947       C  0.95508363  0.28296322  0.58020763     0.01430
C1948       C  0.95019581  0.27745965  0.60261908    -0.10750
C1949       C  0.94972720  0.29413065  0.61908377     0.03920
C1950       C  0.95404021  0.31625072  0.61330305    -0.10170
H1951       H  0.96248361  0.31035180  0.55754221     0.09510
H1952       H  0.94716905  0.26027187  0.60737436     0.07040
H1953       H  0.95350472  0.32907000  0.62607649     0.06890
C1954       C  0.93929334  0.23191507  0.54518566     0.03930
C1955       C  0.93932773  0.24831142  0.56210287    -0.12220
C1956       C  0.95563836  0.26522537  0.56264506     0.01430
C1957       C  0.97246062  0.26526040  0.54627683    -0.10750
C1958       C  0.97324385  0.24886434  0.52941864     0.03920
C1959       C  0.95641892  0.23241843  0.52889790    -0.10170
H1960       H  0.92652461  0.24809336  0.57485553     0.09510
H1961       H  0.98505064  0.27823810  0.54664757     0.07040
H1962       H  0.95661817  0.22005585  0.51574758     0.06890
C1963       C  0.00347618  0.25151479  0.47277614     0.03930
C1964       C  0.98744714  0.24559970  0.48932495    -0.12220
C1965       C  0.99145631  0.24986821  0.51225765     0.01430
C1966       C  0.01324526  0.25579799  0.51883161    -0.10750
C1967       C  0.02940637  0.26075156  0.50276177     0.03920
C1968       C  0.02330531  0.26153426  0.48024616    -0.10170
H1969       H  0.97180968  0.23802329  0.48454484     0.09510
H1970       H  0.01774465  0.25608481  0.53634994     0.07040
H1971       H  0.03524446  0.26826021  0.46851692     0.06890
C1972       C  0.88161043  0.20399993  0.54852073     0.03930
C1973       C  0.88661519  0.18304146  0.53944895    -0.12220
C1974       C  0.90860518  0.17701285  0.53456315     0.01430
C1975       C  0.92580107  0.19280175  0.53665339    -0.10750
C1976       C  0.92113819  0.21464223  0.54416352     0.03920
C1977       C  0.89900462  0.21974777  0.55082740    -0.10170
H1978       H  0.87347113  0.17079703  0.53725751     0.09510
H1979       H  0.94283319  0.18776792  0.53309585     0.07040
H1980       H  0.89514110  0.23605337  0.55754413     0.06890
O1981       O  0.93518745  0.22657373  0.82467041    -0.87550
C1982       C  0.99909269  0.22551483  0.80437670     0.88480
Mg1983     Mg  0.90837852  0.22020455  0.80246735     1.58150
O1984       O  0.97792852  0.27870659  0.81499326    -0.87280
O1985       O  0.94639776  0.25305487  0.84747229    -0.74610
C1986       C  0.93312767  0.28150507  0.71363783     0.93530
O1987       O  0.95828918  0.19768757  0.78663343    -0.74420
O1988       O  0.91969697  0.26605755  0.71937428    -0.81930
Mg1989     Mg  0.96176500  0.20296305  0.82455997     1.57960
C1990       C  0.98636035  0.33124726  0.77447022     0.93450
O1991       O  0.96467043  0.20678244  0.86280590    -0.80190
H1992       H  0.96310707  0.30018551  0.83585964    -0.05540
C1993       C  0.97779089  0.25872817  0.75078410     0.88390
O1994       O  0.90257040  0.25809830  0.79937632    -0.74700
O1995       O  0.98421787  0.22951887  0.81821335    -0.87470
O1996       O  0.99762111  0.31653113  0.78504264    -0.80280
C1997       C  0.03701635  0.26975485  0.82633383     0.93570
C1998       C  0.97570915  0.21787415  0.87725071     0.93420
Mg1999     Mg  0.94749907  0.29607208  0.76631621     1.57950
O2000       O  0.94444723  0.29236710  0.72804339    -0.80200
O2001       O  0.95126539  0.30164572  0.80413656    -0.74440
O2002       O  0.02257594  0.25890044  0.83764870    -0.80280
O2003       O  0.93892741  0.17325351  0.82942665    -0.81990
O2004       O  0.88617698  0.24013330  0.75330658    -0.80310
C2005       C  0.96434921  0.29385177  0.81900853     0.87860
O2006       O  0.92493211  0.26951091  0.77260165    -0.87450
O2007       O  0.97411274  0.27228225  0.76597123    -0.87560
O2008       O  0.96253217  0.24623308  0.74286949    -0.74610
Mg2009     Mg  0.98428328  0.25623401  0.84167693     1.57970
O2010       O  0.03131009  0.28272084  0.81046801    -0.81990
H2011       H  0.91440373  0.24192537  0.84586607    -0.05710
O2012       O  0.93153567  0.22044964  0.77551575    -0.87260
H2013       H  0.94744979  0.19985872  0.75459077    -0.05540
H2014       H  0.90358606  0.29007259  0.78809095    -0.05710
C2015       C  0.94555774  0.20569836  0.77155719     0.87830
C2016       C  0.93130638  0.24029384  0.83966473     0.88420
C2017       C  0.91002186  0.27325743  0.78646692     0.88470
H2018       H  0.99464210  0.25704496  0.74445293    -0.05690
O2019       O  0.00677740  0.24047607  0.79138572    -0.74720
Mg2020     Mg  0.92466980  0.24299505  0.74897178     1.58000
H2021       H  0.00525144  0.20859549  0.80281337    -0.05710
C2022       C  0.92346470  0.16744336  0.81608229     0.93450
O2023       O  0.87832102  0.21560688  0.78023918    -0.81950
C2024       C  0.87221922  0.22871053  0.76468071     0.93510
O2025       O  0.98897300  0.23346068  0.87153111    -0.81930
Mg2026     Mg  0.00120144  0.27831955  0.78801838     1.58180
O2027       O  0.91244719  0.18176096  0.80472260    -0.80270
O2028       O  0.97027216  0.32582579  0.76169325    -0.81960
C2029       C  0.02651190  0.29355669  0.04267447     0.03930
C2030       C  0.02129163  0.31567329  0.04764696    -0.12220
C2031       C  0.99914983  0.32238326  0.05083537     0.01430
C2032       C  0.98201888  0.30633379  0.04986799    -0.10750
C2033       C  0.98710027  0.28370832  0.04558242     0.03920
C2034       C  0.00952600  0.27749859  0.04173488    -0.10170
H2035       H  0.03464373  0.32785259  0.04885483     0.09510
H2036       H  0.96480727  0.31149122  0.05222394     0.07040
H2037       H  0.01385658  0.26022252  0.03852441     0.06890
C2038       C  0.96914167  0.26654193  0.04543525     0.03930
C2039       C  0.95288520  0.26616754  0.06237669    -0.12220
C2040       C  0.93620135  0.24960378  0.06287377     0.01430
C2041       C  0.93583674  0.23345581  0.04575085    -0.10750
C2042       C  0.95183814  0.23367131  0.02845099     0.03920
C2043       C  0.96849005  0.25023560  0.02861129    -0.10170
H2044       H  0.95330833  0.27882800  0.07526651     0.09510
H2045       H  0.92309163  0.22065857  0.04587881     0.07040
H2046       H  0.98112228  0.25040499  0.01566113     0.06890
C2047       C  0.94698625  0.17748361  0.99888381     0.03930
C2048       C  0.95287527  0.18338330  0.97712239    -0.12220
C2049       C  0.95772905  0.20547321  0.97161871     0.01430
C2050       C  0.95713762  0.22199761  0.98822292    -0.10750
C2051       C  0.95155082  0.21639080  0.01046806     0.03920
C2052       C  0.94624576  0.19399354  0.01552357    -0.10170
H2053       H  0.95378227  0.17063212  0.96430600     0.09510
H2054       H  0.96070999  0.23913775  0.98369498     0.07040
H2055       H  0.94225704  0.18916463  0.03248465     0.06890
C2056       C  0.90843118  0.25689056  0.11972837     0.03930
C2057       C  0.88602861  0.25324978  0.11428319    -0.12220
C2058       C  0.87987958  0.24581924  0.09301494     0.01430
C2059       C  0.89656759  0.24390501  0.07647815    -0.10750
C2060       C  0.91901100  0.24961613  0.08104073     0.03920
C2061       C  0.92487624  0.25547070  0.10309820    -0.10170
H2062       H  0.87343676  0.25520756  0.12714406     0.09510
H2063       H  0.89192289  0.23839734  0.05992834     0.07040
H2064       H  0.94220621  0.25827500  0.10752660     0.06890
C2065       C  0.38106456  0.24724630  0.59074490     0.03930
C2066       C  0.38670900  0.25198534  0.61281840    -0.12220
C2067       C  0.40877650  0.25644754  0.61880710     0.01430
C2068       C  0.42556192  0.25588392  0.60243066    -0.10750
C2069       C  0.42025396  0.25083257  0.58004512     0.03920
C2070       C  0.39777587  0.24652773  0.57432579    -0.10170
H2071       H  0.37374012  0.25221152  0.62547787     0.09510
H2072       H  0.44274427  0.25892489  0.60726486     0.07040
H2073       H  0.39317787  0.24316392  0.55716800     0.06890
C2074       C  0.52826646  0.29571602  0.54078793     0.03930
C2075       C  0.51192694  0.27887558  0.54143417    -0.12220
C2076       C  0.48941878  0.28416788  0.54618614     0.01430
C2077       C  0.48369013  0.30657067  0.55078482    -0.10750
C2078       C  0.50005048  0.32329619  0.55023404     0.03920
C2079       C  0.52205186  0.31784641  0.54482015    -0.10170
H2080       H  0.51685623  0.26168962  0.53863712     0.09510
H2081       H  0.46652971  0.31115406  0.55434622     0.07040
H2082       H  0.53454670  0.33093621  0.54411321     0.06890
C2083       C  0.45977996  0.20356616  0.47365849     0.03930
C2084       C  0.45391986  0.18178689  0.47961351    -0.12220
C2085       C  0.44957839  0.17618905  0.50179250     0.01430
C2086       C  0.45012066  0.19274396  0.51831372    -0.10750
C2087       C  0.45537794  0.21500758  0.51265586     0.03920
C2088       C  0.46057025  0.22016288  0.49024421    -0.10170
H2089       H  0.45315422  0.16890434  0.46692547     0.09510
H2090       H  0.44701003  0.18815091  0.53552868     0.07040
H2091       H  0.46473491  0.23712499  0.48555440     0.06890
C2092       C  0.47196178  0.26642115  0.54638033     0.03930
C2093       C  0.45496837  0.26662905  0.56259377    -0.12220
C2094       C  0.43813595  0.25027130  0.56275477     0.01430
C2095       C  0.43847923  0.23344119  0.54640067    -0.10750
C2096       C  0.45537142  0.23280441  0.53004808     0.03920
C2097       C  0.47203332  0.24938783  0.53020928    -0.10170
H2098       H  0.45479434  0.27963452  0.57513620     0.09510
H2099       H  0.42553116  0.22081750  0.54638559     0.07040
H2100       H  0.48504207  0.24909935  0.51764256     0.06890
C2101       C  0.38029514  0.50051416  0.25249804     0.03930
C2102       C  0.38520265  0.49556377  0.23035514    -0.12220
C2103       C  0.40730382  0.49451570  0.22282121     0.01430
C2104       C  0.42480353  0.49625825  0.23843791    -0.10750
C2105       C  0.42007014  0.49955101  0.26128125     0.03920
C2106       C  0.39763770  0.50229028  0.26810018    -0.10170
H2107       H  0.37155292  0.49361689  0.21858569     0.09510
H2108       H  0.44200338  0.49551528  0.23282546     0.07040
H2109       H  0.39361940  0.50536947  0.28545678     0.06890
C2110       C  0.50143099  0.42643429  0.28936307     0.03930
C2111       C  0.52273656  0.43200799  0.29719067    -0.12220
C2112       C  0.52786239  0.45385855  0.30335020     0.01430
C2113       C  0.51117897  0.47034300  0.30245544    -0.10750
C2114       C  0.48944616  0.46523060  0.29494972     0.03920
C2115       C  0.48487099  0.44317457  0.28800068    -0.10170
H2116       H  0.53557780  0.41924599  0.29828860     0.09510
H2117       H  0.51543767  0.48728595  0.30708634     0.07040
H2118       H  0.46831347  0.43877501  0.28220174     0.06890
C2119       C  0.45165962  0.57276161  0.34028718     0.03930
C2120       C  0.45298762  0.55628953  0.32359894    -0.12220
C2121       C  0.45474298  0.53352983  0.32928858     0.01430
C2122       C  0.45630998  0.52738474  0.35191018    -0.10750
C2123       C  0.45619924  0.54373914  0.36869990     0.03920
C2124       C  0.45322868  0.56614515  0.36267524    -0.10170
H2125       H  0.45269905  0.56111669  0.30617343     0.09510
H2126       H  0.45761430  0.50991176  0.35645108     0.07040
H2127       H  0.45239388  0.57867239  0.37566804     0.06890
C2128       C  0.45490146  0.51620487  0.31158791     0.03930
C2129       C  0.43859086  0.51645043  0.29475741    -0.12220
C2130       C  0.43839154  0.50001976  0.27804993     0.01430
C2131       C  0.45521368  0.48352164  0.27794712    -0.10750
C2132       C  0.47170352  0.48288493  0.29476331     0.03920
C2133       C  0.47113381  0.49923586  0.31166317    -0.10170
H2134       H  0.42583182  0.52932486  0.29483903     0.09510
H2135       H  0.45525769  0.47106730  0.26486193     0.07040
H2136       H  0.48335326  0.49885310  0.32499943     0.06890
C2137       C  0.45753214  0.82382474  0.59027123     0.03930
C2138       C  0.45424314  0.81848321  0.61266750    -0.12220
C2139       C  0.45188800  0.79630120  0.61946583     0.01430
C2140       C  0.45195962  0.77923711  0.60341337    -0.10750
C2141       C  0.45473218  0.78438819  0.58061161     0.03920
C2142       C  0.45772931  0.80686096  0.57416911    -0.10170
H2143       H  0.45400425  0.83171788  0.62501790     0.09510
H2144       H  0.45043350  0.76200621  0.60873055     0.07040
H2145       H  0.45988173  0.81120599  0.55674339     0.06890
C2146       C  0.49976162  0.74413807  0.47366804     0.03930
C2147       C  0.52222193  0.74552055  0.48029757    -0.12220
C2148       C  0.52807712  0.75064919  0.50226251     0.01430
C2149       C  0.51136517  0.75197030  0.51861133    -0.10750
C2150       C  0.48874696  0.74899956  0.51282079     0.03920
C2151       C  0.48301924  0.74603967  0.49017800    -0.10170
H2152       H  0.53539715  0.74353042  0.46803685     0.09510
H2153       H  0.51603594  0.75509756  0.53579985     0.07040
H2154       H  0.46554153  0.74561273  0.48551479     0.06890
C2155       C  0.47119210  0.74922178  0.53042055     0.03930
C2156       C  0.47101769  0.76610043  0.54667395    -0.12220
C2157       C  0.45479931  0.76631797  0.56364454     0.01430
C2158       C  0.43861525  0.74929888  0.56431385    -0.10750
C2159       C  0.43848557  0.73221633  0.54823534     0.03920
C2160       C  0.45485747  0.73233165  0.53132247    -0.10170
H2161       H  0.48358855  0.77910039  0.54612601     0.09510
H2162       H  0.42595840  0.74946560  0.57725316     0.07040
H2163       H  0.45481131  0.71933173  0.51876306     0.06890
C2164       C  0.40886096  0.67609275  0.54192038     0.03930
C2165       C  0.38658502  0.68356155  0.54183828    -0.12220
C2166       C  0.38108227  0.70542738  0.54771821     0.01430
C2167       C  0.39800622  0.72131577  0.55034355    -0.10750
C2168       C  0.42057630  0.71495376  0.54826341     0.03920
C2169       C  0.42585088  0.69212002  0.54553582    -0.10170
H2170       H  0.37313382  0.67209313  0.53801258     0.09510
H2171       H  0.39355645  0.73856169  0.55355266     0.07040
H2172       H  0.44319171  0.68707919  0.54642776     0.06890
O2173       O  0.47402004  0.72141645  0.31830152    -0.87550
C2174       C  0.40989955  0.74133417  0.31939442     0.88480
Mg2175     Mg  0.50042943  0.74366551  0.32532422     1.58150
O2176       O  0.43212008  0.73138634  0.26674611    -0.87280
O2177       O  0.46325287  0.69823112  0.29207471    -0.74610
C2178       C  0.47509714  0.83351860  0.26584311     0.93530
O2179       O  0.45073892  0.75858993  0.34880709    -0.74420
O2180       O  0.48770394  0.82751638  0.28186636    -0.81930
Mg2181     Mg  0.44763566  0.72085837  0.34194776     1.57960
C2182       C  0.42336844  0.77186393  0.21387717     0.93450
O2183       O  0.44539024  0.68275987  0.33690244    -0.80190
H2184       H  0.44829747  0.71085784  0.24594295    -0.05540
C2185       C  0.43031908  0.79529961  0.28697551     0.88390
O2186       O  0.50643955  0.74787006  0.28762912    -0.74700
O2187       O  0.42519473  0.72787741  0.31552670    -0.87470
O2188       O  0.41247497  0.76042155  0.22818386    -0.80280
C2189       C  0.37253703  0.71951913  0.27512199     0.93570
C2190       C  0.43419481  0.66832613  0.32603657     0.93420
Mg2191     Mg  0.46137473  0.78101931  0.24985107     1.57950
O2192       O  0.46405584  0.81953747  0.25411972    -0.80200
O2193       O  0.45862215  0.74309068  0.24412336    -0.74440
O2194       O  0.38715630  0.70902247  0.28651679    -0.80280
O2195       O  0.47066003  0.71515804  0.37119839    -0.81990
O2196       O  0.52184348  0.79373286  0.30720929    -0.80310
C2197       C  0.44615942  0.72774805  0.25196601     0.87860
O2198       O  0.48376638  0.77464809  0.27666779    -0.87450
O2199       O  0.43437094  0.78053707  0.27306321    -0.87560
O2200       O  0.44524081  0.80274566  0.30016041    -0.74610
Mg2201     Mg  0.42537446  0.70453956  0.28884141     1.57970
O2202       O  0.37869721  0.73423524  0.26111077    -0.81990
H2203       H  0.49510722  0.69984618  0.30379057    -0.05710
O2204       O  0.47684944  0.77023638  0.32578257    -0.87260
H2205       H  0.46210212  0.79053779  0.34787585    -0.05540
H2206       H  0.50558699  0.76002780  0.25600065    -0.05710
C2207       C  0.46344518  0.77382082  0.34114874     0.87830
C2208       C  0.47817021  0.70618741  0.30494138     0.88420
C2209       C  0.49895391  0.76110499  0.27275087     0.88470
H2210       H  0.41341337  0.80160095  0.28840608    -0.05690
O2211       O  0.40196129  0.75410236  0.30430942    -0.74720
Mg2212     Mg  0.48321075  0.79736896  0.30394709     1.58000
H2213       H  0.40344827  0.74263838  0.33621801    -0.05710
C2214       C  0.48550998  0.72879667  0.37772280     0.93450
O2215       O  0.52991042  0.76611867  0.33091278    -0.81950
C2216       C  0.53588228  0.78216108  0.31840507     0.93510
O2217       O  0.42024616  0.67470354  0.31135521    -0.81930
Mg2218     Mg  0.40808138  0.75760053  0.26641415     1.58180
O2219       O  0.49616628  0.74043140  0.36345495    -0.80270
O2220       O  0.43860282  0.78549753  0.21973923    -0.81960
O2221       O  0.18431844  0.96298617  0.30806715    -0.87550
C2222       C  0.19050024  0.99344929  0.24836329     0.88480
Mg2223     Mg  0.16888358  0.97952349  0.33533341     1.58150
O2224       O  0.23965345  0.98816378  0.27865887    -0.87280
O2225       O  0.21627230  0.94707972  0.29918717    -0.74610
C2226       C  0.21463989  0.07989615  0.33498064     0.93530
O2227       O  0.15198192  0.99869752  0.28450143    -0.74420
O2228       O  0.19859119  0.06871261  0.34321933    -0.81930
Mg2229     Mg  0.16594276  0.96347734  0.27763129     1.57960
C2230       C  0.28464263  0.03680302  0.28675168     0.93450
O2231       O  0.17784468  0.92730454  0.27079908    -0.80190
H2232       H  0.26200083  0.96894154  0.29455770    -0.05540
C2233       C  0.20847557  0.04756843  0.28186577     0.88390
O2234       O  0.20378284  0.98806275  0.34935905    -0.74700
O2235       O  0.19409382  0.97826051  0.26201550    -0.87470
O2236       O  0.27517927  0.02509172  0.27172856    -0.80280
C2237       C  0.24334366  0.98620673  0.21786533     0.93570
C2238       C  0.19317027  0.91745692  0.25976182     0.93420
Mg2239     Mg  0.24197639  0.03382435  0.31707656     1.57950
O2240       O  0.23036206  0.07021204  0.32430234    -0.80200
O2241       O  0.25557470  0.99843456  0.31004234    -0.74440
O2242       O  0.23107828  0.97158615  0.22732745    -0.80280
O2243       O  0.13462615  0.94979223  0.29340993    -0.81990
O2244       O  0.17533172  0.02649607  0.36661481    -0.80310
C2245       C  0.25286423  0.98455757  0.29419334     0.87860
O2246       O  0.21361497  0.01916687  0.33248761    -0.87450
O2247       O  0.22402000  0.03459290  0.28636619    -0.87560
O2248       O  0.19184075  0.05023570  0.29487917    -0.74610
Mg2249     Mg  0.22434497  0.95987512  0.26381207     1.57970
O2250       O  0.25454216  0.99986195  0.22957701    -0.81990
H2251       H  0.19976806  0.94121196  0.32824699    -0.05710
O2252       O  0.16798505  0.00902407  0.31579739    -0.87260
H2253       H  0.14534410  0.02807528  0.30010883    -0.05540
H2254       H  0.23270981  0.00461327  0.35582462    -0.05710
C2255       C  0.15462927  0.01254075  0.30037504     0.87830
C2256       C  0.19986623  0.94997364  0.31244434     0.88420
C2257       C  0.21729128  0.00421186  0.34634893     0.88470
H2258       H  0.20875123  0.05643806  0.26613093    -0.05690
O2259       O  0.20427978  0.00939278  0.24529834    -0.74720
Mg2260     Mg  0.18328118  0.03740558  0.33018524     1.58000
H2261       H  0.17498637  0.99337593  0.23903071    -0.05710
C2262       C  0.12365280  0.95983646  0.30855786     0.93450
O2263       O  0.15375564  0.99639069  0.36515468    -0.81950
C2264       C  0.16358068  0.01153622  0.37621718     0.93510
O2265       O  0.20915953  0.92804215  0.25065109    -0.81930
Mg2266     Mg  0.23942175  0.01754705  0.25924038     1.58180
O2267       O  0.13327459  0.97156222  0.32341155    -0.80270
O2268       O  0.27345928  0.04722856  0.30149227    -0.81960
C2269       C  0.52849833  0.99625686  0.34031732     0.03930
C2270       C  0.52260227  0.00120440  0.36234649    -0.12220
C2271       C  0.50063995  0.00701354  0.36788650     0.01430
C2272       C  0.48429883  0.00773283  0.35098177    -0.10750
C2273       C  0.48985826  0.00252340  0.32864927     0.03920
C2274       C  0.51216432  0.99687108  0.32351841    -0.10170
H2275       H  0.53522175  0.00033013  0.37532675     0.09510
H2276       H  0.46719766  0.01175092  0.35539554     0.07040
H2277       H  0.51697761  0.99330995  0.30645895     0.06890
C2278       C  0.45511955  0.98532306  0.27793081     0.03930
C2279       C  0.47200875  0.98583164  0.29433910    -0.12220
C2280       C  0.47238621  0.00263522  0.31082746     0.01430
C2281       C  0.45570948  0.01925241  0.31053562    -0.10750
C2282       C  0.43858902  0.01897671  0.29447429     0.03920
C2283       C  0.43846332  0.00198713  0.27829284    -0.10170
H2284       H  0.48480086  0.97301998  0.29441942     0.09510
H2285       H  0.45577715  0.03223332  0.32311222     0.07040
H2286       H  0.42507442  0.00157823  0.26612653     0.06890
C2287       C  0.40647021  0.07366116  0.30237424     0.03930
C2288       C  0.38457973  0.06540200  0.30233916    -0.12220
C2289       C  0.38006944  0.04336695  0.29655200     0.01430
C2290       C  0.39767144  0.02826940  0.29355906    -0.10750
C2291       C  0.41998974  0.03551455  0.29562681     0.03920
C2292       C  0.42427799  0.05846650  0.29921201    -0.10170
H2293       H  0.37066027  0.07656434  0.30560742     0.09510
H2294       H  0.39391992  0.01093118  0.29007086     0.07040
H2295       H  0.44135694  0.06442554  0.29915325     0.06890
C2296       C  0.44496964  0.95493578  0.22298814     0.03930
C2297       C  0.44960449  0.93291594  0.22897607    -0.12220
C2298       C  0.45797294  0.92773444  0.25017434     0.01430
C2299       C  0.46028560  0.94497019  0.26605384    -0.10750
C2300       C  0.45428981  0.96719946  0.26074392     0.03920
C2301       C  0.44717463  0.97202425  0.23881015    -0.10170
H2302       H  0.44755714  0.91982854  0.21665557     0.09510
H2303       H  0.46635245  0.94092291  0.28259551     0.07040
H2304       H  0.44384476  0.98909708  0.23379671     0.06890
C2305       C  0.94850617  0.07404317  0.34054663     0.03930
C2306       C  0.95352801  0.06818008  0.36253747    -0.12220
C2307       C  0.95937761  0.04629954  0.36808271     0.01430
C2308       C  0.95979908  0.02985250  0.35136653    -0.10750
C2309       C  0.95451194  0.03527261  0.32903969     0.03920
C2310       C  0.94897041  0.05762341  0.32377221    -0.10170
H2311       H  0.95320584  0.08087758  0.37543213     0.09510
H2312       H  0.96389572  0.01281318  0.35590416     0.07040
H2313       H  0.94547596  0.06239103  0.30667508     0.06890
C2314       C  0.97142977  0.98389376  0.29512902     0.03930
C2315       C  0.97139730  0.00096962  0.31128451    -0.12220
C2316       C  0.95472034  0.01760140  0.31141899     0.01430
C2317       C  0.93794246  0.01698410  0.29496543    -0.10750
C2318       C  0.93749817  0.00000149  0.27868987     0.03920
C2319       C  0.95439429  0.98362228  0.27889770    -0.10170
H2320       H  0.98434203  0.00123357  0.32391973     0.09510
H2321       H  0.92505316  0.02971092  0.29494015     0.07040
H2322       H  0.95421309  0.97054173  0.26644834     0.06890
C2323       C  0.90686468  0.99506753  0.22275746     0.03930
C2324       C  0.92374526  0.99366210  0.23919110    -0.12220
C2325       C  0.91927533  0.99944157  0.26163092     0.01430
C2326       C  0.89722549  0.00507549  0.26770333    -0.10750
C2327       C  0.88028792  0.00594666  0.25159648     0.03920
C2328       C  0.88535157  0.00167321  0.22924143    -0.10170
H2329       H  0.94048115  0.98876644  0.23434413     0.09510
H2330       H  0.89308341  0.00845344  0.28497588     0.07040
H2331       H  0.87226209  0.00336702  0.21682633     0.06890
C2332       C  0.02771237  0.95459252  0.30173049     0.03930
C2333       C  0.02183922  0.93252004  0.29747193    -0.12220
C2334       C  0.00001219  0.92693752  0.29152567     0.01430
C2335       C  0.98355765  0.94372201  0.29065358    -0.10750
C2336       C  0.98901503  0.96614587  0.29550146     0.03920
C2337       C  0.01140253  0.97144879  0.30075765    -0.10170
H2338       H  0.03455633  0.91959611  0.29831019     0.09510
H2339       H  0.96651753  0.93916599  0.28661301     0.07040
H2340       H  0.01629287  0.98861338  0.30362534     0.06890
O2341       O  0.72266385  0.02313677  0.32612395    -0.87550
C2342       C  0.65891608  0.02179320  0.30511067     0.88480
Mg2343     Mg  0.74950806  0.03017946  0.30428328     1.58150
O2344       O  0.68202039  0.96930361  0.31511134    -0.87280
O2345       O  0.71250076  0.99573268  0.34828536    -0.74610
C2346       C  0.72807963  0.96977046  0.21429444     0.93530
O2347       O  0.69876396  0.05159850  0.28782448    -0.74420
O2348       O  0.74008739  0.98624301  0.22022044    -0.81930
Mg2349     Mg  0.69504714  0.04573909  0.32561048     1.57960
C2350       C  0.67546641  0.91717485  0.27323819     0.93450
O2351       O  0.69149781  0.04187551  0.36414117    -0.80190
H2352       H  0.69730840  0.94796884  0.33582193    -0.05540
C2353       C  0.68166987  0.98986522  0.25103235     0.88390
O2354       O  0.75666944  0.99258750  0.30084973    -0.74700
O2355       O  0.67382743  0.01822293  0.31905353    -0.87470
O2356       O  0.66359351  0.93087990  0.28446964    -0.80280
C2357       C  0.62265550  0.97644339  0.32629670     0.93570
C2358       C  0.68076565  0.02977592  0.37807320     0.93420
Mg2359     Mg  0.71352946  0.95380543  0.26662774     1.57950
O2360       O  0.71744245  0.95804156  0.22856449    -0.80200
O2361       O  0.70953782  0.94756455  0.30422536    -0.74440
O2362       O  0.63717404  0.98686188  0.33782320    -0.80280
O2363       O  0.71660193  0.07647922  0.32982087    -0.81990
O2364       O  0.77171648  0.01267645  0.25481021    -0.80310
C2365       C  0.69603646  0.95457309  0.31906035     0.87860
O2366       O  0.73487446  0.98115592  0.27356387    -0.87450
O2367       O  0.68582022  0.97632508  0.26614013    -0.87560
O2368       O  0.69631634  0.00338781  0.24366972    -0.74610
Mg2369     Mg  0.67494973  0.99101353  0.34206123     1.57970
O2370       O  0.62837493  0.96384644  0.31015398    -0.81990
H2371       H  0.74375292  0.00887248  0.34782290    -0.05710
O2372       O  0.72633380  0.02974694  0.27714556    -0.87260
H2373       H  0.71095992  0.05083652  0.25621747    -0.05540
H2374       H  0.75670685  0.96090235  0.28884411    -0.05710
C2375       C  0.71226497  0.04442032  0.27305285     0.87830
C2376       C  0.72695601  0.00954977  0.34114053     0.88420
C2377       C  0.74979852  0.97755718  0.28750113     0.88470
H2378       H  0.66487928  0.99066233  0.24433933    -0.05690
O2379       O  0.65201104  0.00673941  0.29182416    -0.74720
Mg2380     Mg  0.73389422  0.00821565  0.25025604     1.58000
H2381       H  0.65204626  0.03845299  0.30370278    -0.05710
C2382       C  0.73183010  0.08252484  0.31625446     0.93450
O2383       O  0.77983697  0.03580835  0.28252986    -0.81950
C2384       C  0.78595061  0.02334247  0.26648624     0.93510
O2385       O  0.66917958  0.01305254  0.37203756    -0.81930
Mg2386     Mg  0.65879403  0.96913642  0.28802713     1.58180
O2387       O  0.74383818  0.06794897  0.30647141    -0.80270
O2388       O  0.69178813  0.92343042  0.26116109    -0.81960
O2389       O  0.17084331  0.27041452  0.55783621    -0.87550
C2390       C  0.20251671  0.26457694  0.49840816     0.88480
Mg2391     Mg  0.18681380  0.28427054  0.58616965     1.58150
O2392       O  0.19544826  0.21431703  0.52707241    -0.87280
O2393       O  0.15450218  0.23913444  0.54775352    -0.74610
C2394       C  0.28529958  0.23611833  0.58654943     0.93530
O2395       O  0.20877361  0.30111640  0.53624365    -0.74420
O2396       O  0.27372334  0.24943958  0.59829390    -0.81930
Mg2397     Mg  0.17317024  0.28922777  0.52776292     1.57960
C2398       C  0.24436597  0.16903264  0.53501939     0.93450
O2399       O  0.13667394  0.27889675  0.52006526    -0.80190
H2400       H  0.17572790  0.19137670  0.54133039    -0.05540
C2401       C  0.25522731  0.24481725  0.53390759     0.88390
O2402       O  0.19350775  0.24843758  0.59910584    -0.74700
O2403       O  0.18721504  0.26084130  0.51183916    -0.87470
O2404       O  0.23271603  0.17878907  0.52002462    -0.80280
C2405       C  0.19416410  0.21199386  0.46626931     0.93570
C2406       C  0.12645194  0.26404816  0.50878492     0.93420
Mg2407     Mg  0.23995457  0.21029984  0.56650727     1.57950
O2408       O  0.27593959  0.22200732  0.57375598    -0.80200
O2409       O  0.20478676  0.19687973  0.55802357    -0.74440
O2410       O  0.17906613  0.22342742  0.47610097    -0.80280
O2411       O  0.16058338  0.32103863  0.54351380    -0.81990
O2412       O  0.23139716  0.27373789  0.61927370    -0.80310
C2413       C  0.19135683  0.20042604  0.54188377     0.87860
O2414       O  0.22461454  0.23796277  0.58267535    -0.87450
O2415       O  0.24140860  0.22971856  0.53706497    -0.87560
O2416       O  0.25845473  0.26026404  0.54816802    -0.74610
Mg2417     Mg  0.16783263  0.23125744  0.51251923     1.57970
O2418       O  0.20979967  0.20281655  0.47740865    -0.81990
H2419       H  0.14801998  0.25516055  0.57689791    -0.05710
O2420       O  0.21722537  0.28472560  0.56799259    -0.87260
H2421       H  0.23779848  0.30639503  0.55301342    -0.05540
H2422       H  0.20848238  0.21838144  0.60448180    -0.05710
C2423       C  0.22187367  0.29787636  0.55269341     0.87830
C2424       C  0.15729855  0.25517049  0.56141137     0.88420
C2425       C  0.20905399  0.23424821  0.59580903     0.88470
H2426       H  0.26459820  0.24506774  0.51844826    -0.05690
O2427       O  0.21854617  0.25087684  0.49550020    -0.74720
Mg2428     Mg  0.24414144  0.26732230  0.58336963     1.58000
H2429       H  0.20257716  0.28020727  0.48934518    -0.05710
C2430       C  0.16922170  0.33100119  0.56012346     0.93450
O2431       O  0.20327994  0.29770474  0.61706142    -0.81950
C2432       C  0.21700040  0.28634691  0.62861102     0.93510
O2433       O  0.13742997  0.24867677  0.49910492    -0.81930
Mg2434     Mg  0.22579456  0.21546777  0.50872059     1.58180
O2435       O  0.17985195  0.32060211  0.57535600    -0.80270
O2436       O  0.25459339  0.18003958  0.54994237    -0.81960
C2437       C  0.13147032  0.25332438  0.84079377     0.03930
C2438       C  0.14880571  0.25410041  0.82502037    -0.12220
C2439       C  0.17116033  0.25023311  0.83163309     0.01430
C2440       C  0.17579488  0.24599785  0.85434029    -0.10750
C2441       C  0.15839712  0.24544427  0.87004894     0.03920
C2442       C  0.13636742  0.24868596  0.86305715    -0.10170
H2443       H  0.14480684  0.25738619  0.80768738     0.09510
H2444       H  0.19289664  0.24382408  0.85992014     0.07040
H2445       H  0.12293972  0.24831131  0.87522706     0.06890
C2446       C  0.22369680  0.23440950  0.79924228     0.03930
C2447       C  0.20661931  0.23453361  0.81541246    -0.12220
C2448       C  0.18962231  0.25079494  0.81496167     0.01430
C2449       C  0.19004298  0.26725095  0.79821764    -0.10750
C2450       C  0.20702322  0.26750227  0.78197950     0.03920
C2451       C  0.22382145  0.25105708  0.78266704    -0.10170
H2452       H  0.20627304  0.22162459  0.82809376     0.09510
H2453       H  0.17696930  0.27979322  0.79767285     0.07040
H2454       H  0.23674026  0.25092964  0.76998840     0.06890
C2455       C  0.20878633  0.29450604  0.72450339     0.03930
C2456       C  0.20406477  0.31666498  0.72988083    -0.12220
C2457       C  0.20079258  0.32312207  0.75198886     0.01430
C2458       C  0.20204922  0.30709593  0.76904394    -0.10750
C2459       C  0.20670289  0.28458172  0.76395686     0.03920
C2460       C  0.21026049  0.27841671  0.74150491    -0.10170
H2461       H  0.20276047  0.32900990  0.71666791     0.09510
H2462       H  0.19958213  0.31221165  0.78621019     0.07040
H2463       H  0.21341054  0.26113649  0.73716908     0.06890
C2464       C  0.24773950  0.17594193  0.79788299     0.03930
C2465       C  0.23286949  0.19364726  0.80108731    -0.12220
C2466       C  0.24019142  0.21580445  0.79836358     0.01430
C2467       C  0.26311404  0.21984996  0.79423211    -0.10750
C2468       C  0.27808679  0.20188775  0.79078774     0.03920
C2469       C  0.26956075  0.18013068  0.79105862    -0.10170
H2470       H  0.21562256  0.19006263  0.80526711     0.09510
H2471       H  0.26919617  0.23686095  0.79408898     0.07040
H2472       H  0.28043720  0.16607200  0.78749786     0.06890
C2473       C  0.20838460  0.45217137  0.11850027     0.03930
C2474       C  0.21055661  0.46909815  0.10219127    -0.12220
C2475       C  0.20569096  0.46473382  0.07952069     0.01430
C2476       C  0.20055809  0.44268529  0.07309398    -0.10750
C2477       C  0.19892895  0.42576850  0.08912858     0.03920
C2478       C  0.20169655  0.43086001  0.11168339    -0.10170
H2479       H  0.21546466  0.48572945  0.10722696     0.09510
H2480       H  0.19835182  0.43853356  0.05563661     0.07040
H2481       H  0.19946561  0.41772409  0.12394710     0.06890
C2482       C  0.27851289  0.54636359  0.05144727     0.03930
C2483       C  0.26165172  0.52998742  0.05292399    -0.12220
C2484       C  0.23951866  0.53466641  0.04601841     0.01430
C2485       C  0.23438573  0.55650014  0.03868185    -0.10750
C2486       C  0.25094617  0.57309259  0.03782878     0.03920
C2487       C  0.27290056  0.56765639  0.04360120    -0.10170
H2488       H  0.26600810  0.51347683  0.05886128     0.09510
H2489       H  0.21738740  0.56092371  0.03426565     0.07040
H2490       H  0.28571708  0.58037544  0.04240338     0.06890
C2491       C  0.18829735  0.50012990  0.02954316     0.03930
C2492       C  0.18881105  0.48340673  0.04600487    -0.12220
C2493       C  0.20553783  0.48300364  0.06252606     0.01430
C2494       C  0.22181593  0.49997189  0.06265185    -0.10750
C2495       C  0.22185970  0.51689401  0.04622390     0.03920
C2496       C  0.20501955  0.51664670  0.02970293    -0.10170
H2497       H  0.17614144  0.47051082  0.04590542     0.09510
H2498       H  0.23450990  0.49988322  0.07551883     0.07040
H2499       H  0.20489143  0.52934367  0.01683958     0.06890
C2500       C  0.13155872  0.49363752  0.00096318     0.03930
C2501       C  0.14820417  0.49422077  0.01752797    -0.12220
C2502       C  0.17042972  0.50010417  0.01207460     0.01430
C2503       C  0.17549177  0.50563125  0.98973118    -0.10750
C2504       C  0.15874608  0.50521303  0.97331913     0.03920
C2505       C  0.13695942  0.49920958  0.97902434    -0.10170
H2506       H  0.14369918  0.49040521  0.03461958     0.09510
H2507       H  0.19246369  0.50966690  0.98490827     0.07040
H2508       H  0.12408920  0.49889856  0.96626398     0.06890
O2509       O  0.18278920  0.28378224  0.03481200    -0.87550
C2510       C  0.18841845  0.25400415  0.09516229     0.88480
Mg2511     Mg  0.16753090  0.26698317  0.00762082     1.58150
O2512       O  0.23844187  0.25972362  0.06578952    -0.87280
O2513       O  0.21400717  0.30048527  0.04439738    -0.74610
C2514       C  0.21486718  0.16807895  0.00858561     0.93530
O2515       O  0.15086663  0.24807979  0.05833131    -0.74420
O2516       O  0.19966834  0.17888447  0.99840253    -0.81930
Mg2517     Mg  0.16435525  0.28361058  0.06501537     1.57960
C2518       C  0.28300762  0.21014158  0.05856332     0.93450
O2519       O  0.17638577  0.31995538  0.07064257    -0.80190
H2520       H  0.26106967  0.27878061  0.05021937    -0.05540
C2521       C  0.20728230  0.19972134  0.06106299     0.88390
O2522       O  0.20283218  0.25930276  0.99375151    -0.74700
O2523       O  0.19234328  0.26900334  0.08145112    -0.87470
O2524       O  0.27340534  0.22206195  0.07339161    -0.80280
C2525       C  0.24260380  0.26283408  0.12627523     0.93570
C2526       C  0.19100099  0.32971979  0.08261813     0.93420
Mg2527     Mg  0.24128839  0.21400400  0.02719231     1.57950
O2528       O  0.22975448  0.17790318  0.02016151    -0.80200
O2529       O  0.25483308  0.24932538  0.03463597    -0.74440
O2530       O  0.23114127  0.27781480  0.11632514    -0.80280
O2531       O  0.13329522  0.29722878  0.04872779    -0.81990
O2532       O  0.17682615  0.22166964  0.97589168    -0.80310
C2533       C  0.25189854  0.26323631  0.05044581     0.87860
O2534       O  0.21333620  0.22868659  0.01109527    -0.87450
O2535       O  0.22232888  0.21337682  0.05706955    -0.87560
O2536       O  0.19122696  0.19638240  0.04750205    -0.74610
Mg2537     Mg  0.22218091  0.28792384  0.08002992     1.57970
O2538       O  0.25034896  0.24611707  0.11569031    -0.81990
H2539       H  0.19814372  0.30577284  0.01483850    -0.05710
O2540       O  0.16735082  0.23767279  0.02722575    -0.87260
H2541       H  0.14504220  0.21838244  0.04300539    -0.05540
H2542       H  0.23247800  0.24361598  0.98807636    -0.05710
C2543       C  0.15399093  0.23406060  0.04264063     0.87830
C2544       C  0.19809724  0.29707654  0.03068552     0.88420
C2545       C  0.21688316  0.24365966  0.99724226     0.88470
H2546       H  0.20753978  0.19072009  0.07673649    -0.05690
O2547       O  0.20184211  0.23776531  0.09822524    -0.74720
Mg2548     Mg  0.18343991  0.20978906  0.01220761     1.58000
H2549       H  0.17284877  0.25438996  0.10433637    -0.05710
C2550       C  0.12214923  0.28660181  0.03416146     0.93450
O2551       O  0.15248108  0.24920775  0.97821222    -0.81950
C2552       C  0.16407641  0.23591268  0.96648587     0.93510
O2553       O  0.20497964  0.31838234  0.09387821    -0.81930
Mg2554     Mg  0.23703967  0.22970286  0.08484151     1.58180
O2555       O  0.13165890  0.27440947  0.01957560    -0.80270
O2556       O  0.27189343  0.19990536  0.04371216    -0.81960
O2557       O  0.22502108  0.73789292  0.08164215    -0.87550
C2558       C  0.22016432  0.79751825  0.05090011     0.88480
Mg2559     Mg  0.23892342  0.70978939  0.06517421     1.58150
O2560       O  0.16937052  0.77032423  0.05842668    -0.87280
O2561       O  0.19426988  0.74863816  0.09873345    -0.74610
C2562       C  0.19009928  0.71308636  0.96589713     0.93530
O2563       O  0.25733830  0.76008300  0.04540302    -0.74420
O2564       O  0.20675506  0.70426269  0.97572086    -0.81930
Mg2565     Mg  0.24423338  0.76751001  0.08076310     1.57960
C2566       C  0.12299341  0.76390228  0.01016645     0.93450
O2567       O  0.23273156  0.77368784  0.11717042    -0.80190
H2568       H  0.14792320  0.75435693  0.07846892    -0.05540
C2569       C  0.19928930  0.76536881  0.99862357     0.88390
O2570       O  0.20334562  0.69772965  0.05730091    -0.74700
O2571       O  0.21633574  0.78416152  0.06622578    -0.87470
O2572       O  0.13327919  0.77890455  0.02124208    -0.80280
C2573       C  0.16782704  0.83094995  0.06064485     0.93570
C2574       C  0.21864699  0.78625955  0.12700239     0.93420
Mg2575     Mg  0.16504445  0.73117527  0.01305467     1.57950
O2576       O  0.17504063  0.72397920  0.97634564    -0.80200
O2577       O  0.15336372  0.73869354  0.04891504    -0.74440
O2578       O  0.18001697  0.82081032  0.07486524    -0.80280
O2579       O  0.27518555  0.75072556  0.09397511    -0.81990
O2580       O  0.23115216  0.67948166  0.01688842    -0.80310
C2581       C  0.15642343  0.75471008  0.06254330     0.87860
O2582       O  0.19355792  0.71467442  0.02624993    -0.87450
O2583       O  0.18374096  0.76125730  0.01167521    -0.87560
O2584       O  0.21551493  0.75189641  0.99563425    -0.74610
Mg2585     Mg  0.18701283  0.78439166  0.08583164     1.57970
O2586       O  0.15757873  0.82067721  0.04517826    -0.81990
H2587       H  0.20938956  0.71867456  0.10410872    -0.05710
O2588       O  0.24030148  0.72919031  0.03542983    -0.87260
H2589       H  0.26315615  0.74408294  0.01610694    -0.05540
H2590       H  0.17397682  0.69218444  0.04129845    -0.05710
C2591       C  0.25408128  0.74417895  0.03171428     0.87830
C2592       C  0.20976509  0.73441377  0.09522769     0.88420
C2593       C  0.18971025  0.70103781  0.04133128     0.88470
H2594       H  0.19945396  0.78125916  0.99004373    -0.05690
O2595       O  0.20602318  0.80128951  0.03543835    -0.74720
Mg2596     Mg  0.22349803  0.71614017  0.00716982     1.58000
H2597       H  0.23616441  0.80590717  0.05041352    -0.05710
C2598       C  0.28568713  0.73500567  0.08430989     0.93450
O2599       O  0.25122809  0.67844256  0.04829065    -0.81950
C2600       C  0.24211165  0.66878782  0.03172545     0.93510
O2601       O  0.20514807  0.79814932  0.11574779    -0.81930
Mg2602     Mg  0.17004775  0.78929361  0.02838445     1.58180
O2603       O  0.27564862  0.72013055  0.07283241    -0.80270
O2604       O  0.13311562  0.74751769  0.00120224    -0.81960
C2605       C  0.24873381  0.99567564  0.12119151     0.03930
C2606       C  0.27091239  0.99918580  0.11481943    -0.12220
C2607       C  0.27660856  0.00263094  0.09251066     0.01430
C2608       C  0.25980548  0.00238207  0.07615557    -0.10750
C2609       C  0.23724160  0.99884617  0.08209395     0.03920
C2610       C  0.23185051  0.99535374  0.10481613    -0.10170
H2611       H  0.28388080  0.99966399  0.12747869     0.09510
H2612       H  0.26438917  0.00479816  0.05882842     0.07040
H2613       H  0.21460750  0.99310570  0.10985164     0.06890
C2614       C  0.18591220  0.98315716  0.04747651     0.03930
C2615       C  0.20216362  0.98337020  0.06454765    -0.12220
C2616       C  0.21950459  0.99925253  0.06453965     0.01430
C2617       C  0.22015624  0.01537119  0.04739882    -0.10750
C2618       C  0.20404868  0.01559276  0.03028347     0.03920
C2619       C  0.18712593  0.99933344  0.03041909    -0.10170
H2620       H  0.20149926  0.97103096  0.07775308     0.09510
H2621       H  0.23327502  0.02782167  0.04736534     0.07040
H2622       H  0.17481838  0.99930852  0.01715089     0.06890
C2623       C  0.13022834  0.95412629  0.03701752     0.03930
C2624       C  0.14627562  0.97098385  0.03961786    -0.12220
C2625       C  0.16814379  0.96564190  0.04675488     0.01430
C2626       C  0.17297900  0.94334803  0.05280053    -0.10750
C2627       C  0.15703697  0.92630815  0.04973243     0.03920
C2628       C  0.13614111  0.93191534  0.04078100    -0.10170
H2629       H  0.14153149  0.98820615  0.03667681     0.09510
H2630       H  0.18926511  0.93914289  0.05946299     0.07040
H2631       H  0.12374513  0.91902149  0.03802464     0.06890
C2632       C  0.20754903  0.07240174  0.00211859     0.03930
C2633       C  0.20265176  0.06691560  0.98005511    -0.12220
C2634       C  0.19958480  0.04470054  0.97358176     0.01430
C2635       C  0.20049469  0.02779295  0.98997707    -0.10750
C2636       C  0.20448963  0.03317374  0.01261487     0.03920
C2637       C  0.20831174  0.05564810  0.01844510    -0.10170
H2638       H  0.20138595  0.08014634  0.96773103     0.09510
H2639       H  0.19825054  0.01052997  0.98510663     0.07040
H2640       H  0.21128414  0.06023604  0.03567751     0.06890
O2641       O  0.42420175  0.47918637  0.56896688    -0.87550
C2642       C  0.44376642  0.54373076  0.56879787     0.88480
Mg2643     Mg  0.44689407  0.45271493  0.57569590     1.58150
O2644       O  0.43447383  0.52103878  0.51619507    -0.87280
O2645       O  0.40182003  0.48995471  0.54187429    -0.74610
C2646       C  0.53661993  0.47808887  0.51572098     0.93530
O2647       O  0.46182673  0.50314265  0.59785704    -0.74420
O2648       O  0.53054778  0.46524122  0.53147719    -0.81930
Mg2649     Mg  0.42398979  0.50631286  0.59187708     1.57960
C2650       C  0.47492287  0.52932580  0.46363262     0.93450
O2651       O  0.38548780  0.50906271  0.58781845    -0.80190
H2652       H  0.41402756  0.50601016  0.49445214    -0.05540
C2653       C  0.49808431  0.52294364  0.53709644     0.88390
O2654       O  0.45060056  0.44701713  0.53788802    -0.74700
O2655       O  0.43057020  0.52825557  0.56498147    -0.87470
O2656       O  0.46397809  0.54031184  0.47818457    -0.80280
C2657       C  0.42223613  0.58026698  0.52382794     0.93570
C2658       C  0.37142877  0.52025936  0.57631363     0.93420
Mg2659     Mg  0.48397781  0.49187148  0.49986441     1.57950
O2660       O  0.52261797  0.48948634  0.50430862    -0.80200
O2661       O  0.44608144  0.49475118  0.49341094    -0.74440
O2662       O  0.41172696  0.56596268  0.53556841    -0.80280
O2663       O  0.41927094  0.48412403  0.62186419    -0.81990
O2664       O  0.49672316  0.43195489  0.55646148    -0.80310
C2665       C  0.43082543  0.50748252  0.50102291     0.87860
O2666       O  0.47726495  0.46977274  0.52673089    -0.87450
O2667       O  0.48340767  0.51887007  0.52309169    -0.87560
O2668       O  0.50571051  0.50799403  0.55019757    -0.74610
Mg2669     Mg  0.40749002  0.52773577  0.53811533     1.57970
O2670       O  0.43682074  0.57381508  0.50983545    -0.81990
H2671       H  0.40300975  0.45826153  0.55389249    -0.05710
O2672       O  0.47341700  0.47633502  0.57569736    -0.87260
H2673       H  0.49381509  0.49176707  0.59716727    -0.05540
H2674       H  0.46181581  0.44870357  0.50595944    -0.05710
C2675       C  0.47703995  0.49017935  0.59059921     0.87830
C2676       C  0.40933162  0.47510937  0.55515394     0.88420
C2677       C  0.46344788  0.45484840  0.52284988     0.88470
H2678       H  0.50416531  0.53985933  0.53864699    -0.05690
O2679       O  0.45659364  0.55159896  0.55376626    -0.74720
Mg2680     Mg  0.50040109  0.47010102  0.55368957     1.58000
H2681       H  0.44479685  0.55040157  0.58554892    -0.05710
C2682       C  0.43235423  0.46850605  0.62793337     0.93450
O2683       O  0.46996142  0.42301403  0.58065110    -0.81950
C2684       C  0.48568359  0.41744228  0.56745136     0.93510
O2685       O  0.37735105  0.53274999  0.56021620    -0.81930
Mg2686     Mg  0.46054123  0.54502505  0.51604071     1.58180
O2687       O  0.44372930  0.45702072  0.61402654    -0.80270
O2688       O  0.48851935  0.51412587  0.46970207    -0.81960
C2689       C  0.16659302  0.85559766  0.06106867    -0.04540
C2690       C  0.18376365  0.86826001  0.05102039    -0.01660
C2691       C  0.18100431  0.89141444  0.04762697     0.03330
C2692       C  0.16164832  0.90241099  0.05569904    -0.04540
C2693       C  0.14559924  0.88986529  0.06793920    -0.01650
C2694       C  0.14763834  0.86645708  0.06973172     0.03330
C2695       C  0.20408889  0.85743446  0.04340105     0.37980
C2696       C  0.12688352  0.90090872  0.07874568     0.37970
C2697       C  0.13000068  0.85343883  0.08007159     0.36390
C2698       C  0.19758245  0.90343512  0.03464220     0.36390
N2699       N  0.11586636  0.84302073  0.08815832    -0.38430
N2700       N  0.21089276  0.91293422  0.02432554    -0.38430
N2701       N  0.11186893  0.90959799  0.08731249    -0.37870
N2702       N  0.22059138  0.84937714  0.03731561    -0.37880
C2703       C  0.21070328  0.09627838  0.00762166    -0.04540
C2704       C  0.19210438  0.10916538  0.01409834    -0.01660
C2705       C  0.19366065  0.13261184  0.01464174     0.03330
C2706       C  0.21386940  0.14333917  0.00855022    -0.04540
C2707       C  0.23288705  0.13032779  0.00338717    -0.01650
C2708       C  0.23127848  0.10681415  0.00292317     0.03330
C2709       C  0.17117029  0.09824676  0.01963851     0.37980
C2710       C  0.25380713  0.14110633  0.99762581     0.37970
C2711       C  0.25067903  0.09339632  0.99729440     0.36390
C2712       C  0.17447392  0.14564279  0.02184463     0.36390
N2713       N  0.26619453  0.08267394  0.99295041    -0.38430
N2714       N  0.15918127  0.15600593  0.02761923    -0.38430
N2715       N  0.27048967  0.14972503  0.99301075    -0.37870
N2716       N  0.15451673  0.08948903  0.02408764    -0.37880
C2717       C  0.24548787  0.59697128  0.03326748    -0.04540
C2718       C  0.25715260  0.60895111  0.01649934    -0.01660
C2719       C  0.25574654  0.63248994  0.01552328     0.03330
C2720       C  0.24247096  0.64410307  0.03108105    -0.04540
C2721       C  0.22963507  0.63206849  0.04681534    -0.01650
C2722       C  0.23118725  0.60863701  0.04797899     0.03330
C2723       C  0.27096063  0.59706885  0.00052316     0.37980
C2724       C  0.21501480  0.64375789  0.06223324     0.37970
C2725       C  0.21897652  0.59674948  0.06524190     0.36390
C2726       C  0.26875955  0.64483073  0.99925104     0.36390
N2727       N  0.20917695  0.58729525  0.07896320    -0.38430
N2728       N  0.27921964  0.65471180  0.98634436    -0.38430
N2729       N  0.20322603  0.65261699  0.07473188    -0.37870
N2730       N  0.28202798  0.58757747  0.98782842    -0.37880
C2731       C  0.19290537  0.35471459  0.08240097    -0.04540
C2732       C  0.21408634  0.36492810  0.08610913    -0.01660
C2733       C  0.21620576  0.38829641  0.08555243     0.03330
C2734       C  0.19721594  0.40189709  0.08290379    -0.04540
C2735       C  0.17650075  0.39216546  0.07761803    -0.01650
C2736       C  0.17433592  0.36864259  0.07700552     0.03330
C2737       C  0.23407112  0.35174553  0.09034109     0.37980
C2738       C  0.15747840  0.40644285  0.07281026     0.37970
C2739       C  0.15282716  0.35909892  0.07122817     0.36390
C2740       C  0.23814705  0.39855806  0.08717912     0.36390
N2741       N  0.13567412  0.35160652  0.06637249    -0.38430
N2742       N  0.25562908  0.40677071  0.08807693    -0.38430
N2743       N  0.14239551  0.41788685  0.06875072    -0.37870
N2744       N  0.25004007  0.34140627  0.09398039    -0.37880
C2745       C  0.16270663  0.24343686  0.89436650    -0.04540
C2746       C  0.16966029  0.22302395  0.90382939    -0.01660
C2747       C  0.17006100  0.22031429  0.92728885     0.03330
C2748       C  0.16374617  0.23825364  0.94152772    -0.04540
C2749       C  0.15832947  0.25924875  0.93167767    -0.01650
C2750       C  0.15754474  0.26163469  0.90833321     0.03330
C2751       C  0.17589794  0.20462769  0.88935131     0.37980
C2752       C  0.15431820  0.27895223  0.94524677     0.37970
C2753       C  0.15138052  0.28302545  0.89854623     0.36390
C2754       C  0.17665287  0.19885416  0.93646611     0.36390
N2755       N  0.14635980  0.29998443  0.89070185    -0.38430
N2756       N  0.18206028  0.18172597  0.94366780    -0.38430
N2757       N  0.15118155  0.29476362  0.95590026    -0.37870
N2758       N  0.18100952  0.19003728  0.87776066    -0.37880
C2759       C  0.21510598  0.28685932  0.65346138    -0.04540
C2760       C  0.19367988  0.28877352  0.66355646    -0.01660
C2761       C  0.19164492  0.28982698  0.68692350     0.03330
C2762       C  0.21081512  0.28871706  0.70054980    -0.04540
C2763       C  0.23202528  0.28558784  0.69077827    -0.01650
C2764       C  0.23422610  0.28461982  0.66731376     0.03330
C2765       C  0.17345473  0.28928466  0.65011143     0.37980
C2766       C  0.25170107  0.28439898  0.70488753     0.37970
C2767       C  0.25631940  0.28221915  0.65759208     0.36390
C2768       C  0.16973158  0.29255551  0.69706028     0.36390
N2769       N  0.27395562  0.28023256  0.64987824    -0.38430
N2770       N  0.15231590  0.29483546  0.70517531    -0.38430
N2771       N  0.26738938  0.28349284  0.71616125    -0.37870
N2772       N  0.15730590  0.28976644  0.63946260    -0.37880
C2773       C  0.81033123  0.01938504  0.26263069    -0.04540
C2774       C  0.81790304  0.99756200  0.25708629    -0.01660
C2775       C  0.84092084  0.99299179  0.25548369     0.03330
C2776       C  0.85665196  0.01028788  0.25775158    -0.04540
C2777       C  0.84946188  0.03181884  0.26395576    -0.01650
C2778       C  0.82641564  0.03632494  0.26673939     0.03330
C2779       C  0.80227694  0.97932538  0.25365731     0.37980
C2780       C  0.86584225  0.04929480  0.26754706     0.37970
C2781       C  0.81949440  0.05851375  0.27356754     0.36390
C2782       C  0.84857019  0.97011254  0.25287385     0.36390
N2783       N  0.81424110  0.07622706  0.27925542    -0.38430
N2784       N  0.85456581  0.95178573  0.25143035    -0.38430
N2785       N  0.87897238  0.06314249  0.27057088    -0.37870
N2786       N  0.78999881  0.96470741  0.25066468    -0.37880
C2787       C  0.59842237  0.98094075  0.33048319    -0.04540
C2788       C  0.59131841  0.00302067  0.33562437    -0.01660
C2789       C  0.56840444  0.00807472  0.33746756     0.03330
C2790       C  0.55226608  0.99113928  0.33520139    -0.04540
C2791       C  0.55908229  0.96921112  0.32988394    -0.01650
C2792       C  0.58205225  0.96412226  0.32737553     0.03330
C2793       C  0.60734052  0.02101133  0.33848964     0.37980
C2794       C  0.54241723  0.95184693  0.32719630     0.37970
C2795       C  0.58873812  0.94141491  0.32219843     0.36390
C2796       C  0.56134272  0.03105576  0.34074911     0.36390
N2797       N  0.59403008  0.92329403  0.31801413    -0.38430
N2798       N  0.55589996  0.04947190  0.34295881    -0.38430
N2799       N  0.52906454  0.93806085  0.32496482    -0.37870
N2800       N  0.61988459  0.03548451  0.34105418    -0.37880
C2801       C  0.24350026  0.98855490  0.19282463    -0.04540
C2802       C  0.23772964  0.97044136  0.17859095    -0.01660
C2803       C  0.23790773  0.97313915  0.15509375     0.03330
C2804       C  0.24391679  0.99378591  0.14551326    -0.04540
C2805       C  0.24847734  0.01213543  0.15949434    -0.01650
C2806       C  0.24811685  0.00969528  0.18288670     0.03330
C2807       C  0.23204484  0.94877099  0.18782075     0.37980
C2808       C  0.25376107  0.03370714  0.14965712     0.37970
C2809       C  0.25193459  0.02943843  0.19643394     0.36390
C2810       C  0.23257175  0.95444148  0.14067893     0.36390
N2811       N  0.25498180  0.04525986  0.20708622    -0.38430
N2812       N  0.22821983  0.93959135  0.12913063    -0.38430
N2813       N  0.25807737  0.05082513  0.14177720    -0.37870
N2814       N  0.22736843  0.93147010  0.19507655    -0.37880
C2815       C  0.05173379  0.95955754  0.30486394    -0.04540
C2816       C  0.06457945  0.96583983  0.28618551    -0.01660
C2817       C  0.08806540  0.96589583  0.28751247     0.03330
C2818       C  0.09889917  0.95960060  0.30758606    -0.04540
C2819       C  0.08598683  0.95440455  0.32663234    -0.01650
C2820       C  0.06242572  0.95418572  0.32519406     0.03330
C2821       C  0.05357662  0.97138797  0.26528686     0.37980
C2822       C  0.09691612  0.94845099  0.34742679     0.37970
C2823       C  0.04912753  0.94787042  0.34442749     0.36390
C2824       C  0.10103016  0.97283434  0.26822139     0.36390
N2825       N  0.03848789  0.94281657  0.35975145    -0.38430
N2826       N  0.11133265  0.97837998  0.25283459    -0.38430
N2827       N  0.10566681  0.94372993  0.36401262    -0.37870
N2828       N  0.04473807  0.97577252  0.24865832    -0.37880
C2829       C  0.30938821  0.03667729  0.28847196    -0.04540
C2830       C  0.31956949  0.03095021  0.30908182    -0.01660
C2831       C  0.34300553  0.03136967  0.31128096     0.03330
C2832       C  0.35642187  0.03714869  0.29289394    -0.04540
C2833       C  0.34644467  0.04122272  0.27190618    -0.01650
C2834       C  0.32294977  0.04115063  0.26970699     0.03330
C2835       C  0.30599815  0.02425309  0.32802805     0.37980
C2836       C  0.36042077  0.04606445  0.25271968     0.37970
C2837       C  0.31278207  0.04677844  0.24844743     0.36390
C2838       C  0.35340444  0.02633196  0.33259302     0.36390
N2839       N  0.30469789  0.05135403  0.23149096    -0.38430
N2840       N  0.36177332  0.02227856  0.34954320    -0.38430
N2841       N  0.37160124  0.04982533  0.23740730    -0.37870
N2842       N  0.29521063  0.01885707  0.34313331    -0.37880
C2843       C  0.47171978  0.85773266  0.26214775    -0.04540
C2844       C  0.45843970  0.87000067  0.27733671    -0.01660
C2845       C  0.45413512  0.89287378  0.27365376     0.03330
C2846       C  0.46399626  0.90400204  0.25530768    -0.04540
C2847       C  0.47830522  0.89183201  0.24077893    -0.01650
C2848       C  0.48156985  0.86866369  0.24384138     0.03330
C2849       C  0.44866304  0.85898918  0.29659520     0.37980
C2850       C  0.48999037  0.90314767  0.22280604     0.37970
C2851       C  0.49509772  0.85603859  0.22819997     0.36390
C2852       C  0.43871163  0.90458880  0.28825338     0.36390
N2853       N  0.50578142  0.84591309  0.21566842    -0.38430
N2854       N  0.42642036  0.91390242  0.29992166    -0.38430
N2855       N  0.49927921  0.91215089  0.20844233    -0.37870
N2856       N  0.44083447  0.85052730  0.31210692    -0.37880
C2857       C  0.41354825  0.65151463  0.53824138    -0.04540
C2858       C  0.43095700  0.64408949  0.52399084    -0.01660
C2859       C  0.43400371  0.62106842  0.51956138     0.03330
C2860       C  0.41850697  0.60493210  0.52767726    -0.04540
C2861       C  0.40079014  0.61251397  0.54153954    -0.01650
C2862       C  0.39945776  0.63512512  0.54805997     0.03330
C2863       C  0.44636268  0.65981286  0.51395919     0.37980
C2864       C  0.38339604  0.59737785  0.54913823     0.37970
C2865       C  0.38408431  0.64105522  0.56589546     0.36390
C2866       C  0.45379814  0.61435390  0.50716475     0.36390
N2867       N  0.37171424  0.64542565  0.58009173    -0.38430
N2868       N  0.46972434  0.60917954  0.49746590    -0.38430
N2869       N  0.36934833  0.58554506  0.55518121    -0.37870
N2870       N  0.45934641  0.67187044  0.50628248    -0.37880
C2871       C  0.49455062  0.74119069  0.44925085    -0.04540
C2872       C  0.47941427  0.72471545  0.44176967    -0.01660
C2873       C  0.47638144  0.72068763  0.41870687     0.03330
C2874       C  0.48942249  0.73226264  0.40244877    -0.04540
C2875       C  0.50463333  0.74884566  0.41017008    -0.01650
C2876       C  0.50610911  0.75405314  0.43310004     0.03330
C2877       C  0.46646308  0.71183784  0.45763246     0.37980
C2878       C  0.51916830  0.76087278  0.39490543     0.37970
C2879       C  0.51899688  0.77346791  0.43993339     0.36390
C2880       C  0.45930329  0.70471765  0.41220998     0.36390
N2881       N  0.52927470  0.78890094  0.44535686    -0.38430
N2882       N  0.44547871  0.69213755  0.40729154    -0.38430
N2883       N  0.53098686  0.77051927  0.38302510    -0.37870
N2884       N  0.45546314  0.70172774  0.46985687    -0.37880
C2885       C  0.46001681  0.53811773  0.39274976    -0.04540
C2886       C  0.44536595  0.54652182  0.40921406    -0.01660
C2887       C  0.45086906  0.54494691  0.43205864     0.03330
C2888       C  0.47047262  0.53326897  0.43911202    -0.04540
C2889       C  0.48447112  0.52369580  0.42239103    -0.01650
C2890       C  0.47949031  0.52652949  0.39948467     0.03330
C2891       C  0.42418107  0.55655372  0.40265257     0.37980
C2892       C  0.50429590  0.51095733  0.42831378     0.37970
C2893       C  0.49489207  0.51788517  0.38283563     0.36390
C2894       C  0.43584676  0.55549429  0.44794663     0.36390
N2895       N  0.50712236  0.51085690  0.36960952    -0.38430
N2896       N  0.42378608  0.56416545  0.46033162    -0.38430
N2897       N  0.52000838  0.50057534  0.43283943    -0.37870
N2898       N  0.40735551  0.56460990  0.39745442    -0.37880
C2899       C  0.44830923  0.59705651  0.33496230    -0.04540
C2900       C  0.43106430  0.60413888  0.32042998    -0.01660
C2901       C  0.42701241  0.62714392  0.31685273     0.03330
C2902       C  0.43847492  0.64365242  0.32965642    -0.04540
C2903       C  0.45554199  0.63624857  0.34457540    -0.01650
C2904       C  0.46130891  0.61342574  0.34594212     0.03330
C2905       C  0.41694312  0.58784226  0.30933618     0.37980
C2906       C  0.46752524  0.65169734  0.35890592     0.37970
C2907       C  0.48119208  0.60690242  0.35835797     0.36390
C2908       C  0.41134737  0.63328435  0.29935355     0.36390
N2909       N  0.49699294  0.60175068  0.36828413    -0.38430
N2910       N  0.39912107  0.63786972  0.28507468    -0.38430
N2911       N  0.47716253  0.66368028  0.37059342    -0.37870
N2912       N  0.40567615  0.57497303  0.30035675    -0.37880
C2913       C  0.49461567  0.34699745  0.55481122    -0.04540
C2914       C  0.49357425  0.36223957  0.53693465    -0.01660
C2915       C  0.49154550  0.38528800  0.54111408     0.03330
C2916       C  0.48999801  0.39329955  0.56334985    -0.04540
C2917       C  0.49084264  0.37788644  0.58125751    -0.01650
C2918       C  0.49329243  0.35481671  0.57697448     0.03330
C2919       C  0.49457137  0.35408003  0.51412640     0.37980
C2920       C  0.49017472  0.38580567  0.60411709     0.37970
C2921       C  0.49509555  0.33912602  0.59535768     0.36390
C2922       C  0.49078741  0.40051975  0.52226657     0.36390
N2923       N  0.49658483  0.32655863  0.60997842    -0.38430
N2924       N  0.49049161  0.41228404  0.50692948    -0.38430
N2925       N  0.48971718  0.39213844  0.62235538    -0.37870
N2926       N  0.49531278  0.34751272  0.49598098    -0.37880
C2927       C  0.35707197  0.24427332  0.58546948    -0.04540
C2928       C  0.34783647  0.22270082  0.58380308    -0.01660
C2929       C  0.32438823  0.21982570  0.58407015     0.03330
C2930       C  0.31008593  0.23861407  0.58618983    -0.04540
C2931       C  0.31956404  0.26034343  0.58634681    -0.01650
C2932       C  0.34291012  0.26307215  0.58592204     0.03330
C2933       C  0.36253919  0.20346273  0.58239772     0.37980
C2934       C  0.30544195  0.28012039  0.58637385     0.37970
C2935       C  0.35249572  0.28534374  0.58600791     0.36390
C2936       C  0.31515275  0.19747224  0.58290223     0.36390
N2937       N  0.36010838  0.30309851  0.58590686    -0.38430
N2938       N  0.30780289  0.17963272  0.58186440    -0.38430
N2939       N  0.29423990  0.29590733  0.58643789    -0.37870
N2940       N  0.37431973  0.18815799  0.58116431    -0.37880
C2941       C  0.09740371  0.28686927  0.03559595    -0.04540
C2942       C  0.08407131  0.29106552  0.01657498    -0.01660
C2943       C  0.06055767  0.29156316  0.01851922     0.03330
C2944       C  0.05033754  0.28781037  0.03941626    -0.04540
C2945       C  0.06353933  0.28245513  0.05812954    -0.01650
C2946       C  0.08698671  0.28189892  0.05625379     0.03330
C2947       C  0.09448415  0.29591475  0.99526401     0.37980
C2948       C  0.05293346  0.27816935  0.07950164     0.37970
C2949       C  0.10033543  0.27587699  0.07561052     0.36390
C2950       C  0.04681917  0.29652777  0.99917699     0.36390
N2951       N  0.11097009  0.27107077  0.09103583    -0.38430
N2952       N  0.03582291  0.30041137  0.98375076    -0.38430
N2953       N  0.04442586  0.27475862  0.09651440    -0.37870
N2954       N  0.10270162  0.29984603  0.97822352    -0.37880
C2955       C  0.06127239  0.26582231  0.83048616    -0.04540
C2956       C  0.06944900  0.24365875  0.83261133    -0.01660
C2957       C  0.09258001  0.23960624  0.83457587     0.03330
C2958       C  0.10778059  0.25755232  0.83476482    -0.04540
C2959       C  0.09979461  0.27964124  0.83263664    -0.01650
C2960       C  0.07663057  0.28378952  0.83044411     0.03330
C2961       C  0.05426462  0.22477318  0.83244936     0.37980
C2962       C  0.11541811  0.29813035  0.83343170     0.37970
C2963       C  0.06857139  0.30662330  0.82915938     0.36390
C2964       C  0.10085644  0.21685810  0.83647091     0.36390
N2965       N  0.06212240  0.32483813  0.82821475    -0.38430
N2966       N  0.10749703  0.19874817  0.83795003    -0.38430
N2967       N  0.12793998  0.31283016  0.83408782    -0.37870
N2968       N  0.04241249  0.20951545  0.83254745    -0.37880
C2969       C  0.97149469  0.21397130  0.90148627    -0.04540
C2970       C  0.94919141  0.21202752  0.90934321    -0.01660
C2971       C  0.94479032  0.21078726  0.93240526     0.03330
C2972       C  0.96251758  0.21073852  0.94788617    -0.04540
C2973       C  0.98474982  0.21255242  0.94024939    -0.01650
C2974       C  0.98924873  0.21434101  0.91714429     0.03330
C2975       C  0.93047718  0.21167198  0.89391196     0.37980
C2976       C  0.00299585  0.21208157  0.95619518     0.37970
C2977       C  0.01222003  0.21568933  0.90949603     0.36390
C2978       C  0.92185905  0.20980483  0.94032839     0.36390
N2979       N  0.03054774  0.21673369  0.90338142    -0.38430
N2980       N  0.90357835  0.20922656  0.94663100    -0.38430
N2981       N  0.01751433  0.21169872  0.96896584    -0.37870
N2982       N  0.91533520  0.21111146  0.88189618    -0.37880
C2983       C  0.05368026  0.26050225  0.50805149    -0.04540
C2984       C  0.06673880  0.24320160  0.49904361    -0.01660
C2985       C  0.08997352  0.24571565  0.49691781     0.03330
C2986       C  0.10119225  0.26349489  0.50809830    -0.04540
C2987       C  0.08785442  0.27889525  0.52063900    -0.01650
C2988       C  0.06418986  0.27791933  0.51965492     0.03330
C2989       C  0.05611616  0.22236187  0.49255408     0.37980
C2990       C  0.09797778  0.29546955  0.53507815     0.37970
C2991       C  0.05059527  0.29438451  0.53108008     0.36390
C2992       C  0.10165545  0.23008951  0.48248784     0.36390
N2993       N  0.03965782  0.30735570  0.54034579    -0.38430
N2994       N  0.11073848  0.21778283  0.47065705    -0.38430
N2995       N  0.10586239  0.30852759  0.54692712    -0.37870
N2996       N  0.04762496  0.20577314  0.48746224    -0.37880
C2997       C  0.94531384  0.28903280  0.64290464    -0.04540
C2998       C  0.96331799  0.28851207  0.65805295    -0.01660
C2999       C  0.95929276  0.28700230  0.68117675     0.03330
C3000       C  0.93708141  0.28558502  0.68940290    -0.04540
C3001       C  0.91904237  0.28610117  0.67409702    -0.01650
C3002       C  0.92317462  0.28796254  0.65094375     0.03330
C3003       C  0.98610448  0.28966155  0.64972899     0.37980
C3004       C  0.89618615  0.28567921  0.68218168     0.37970
C3005       C  0.90465756  0.28944724  0.63536715     0.36390
C3006       C  0.97826434  0.28659456  0.69628175     0.36390
N3007       N  0.88993545  0.29069839  0.62288519    -0.38430
N3008       N  0.99364059  0.28653531  0.70801095    -0.38430
N3009       N  0.87794699  0.28541750  0.68863463    -0.37870
N3010       N  0.00423584  0.29056004  0.64303879    -0.37880
C3011       C  0.94471854  0.09807380  0.33554151    -0.04540
C3012       C  0.92568274  0.10915704  0.34415281    -0.01660
C3013       C  0.92440513  0.13272342  0.34374321     0.03330
C3014       C  0.94207614  0.14529938  0.33455526    -0.04540
C3015       C  0.96068178  0.13412780  0.32509502    -0.01650
C3016       C  0.96199986  0.11063019  0.32562889     0.03330
C3017       C  0.90765697  0.09625076  0.35391943     0.37980
C3018       C  0.97867752  0.14680015  0.31490934     0.37970
C3019       C  0.98169653  0.09939920  0.31695633     0.36390
C3020       C  0.90566041  0.14404660  0.35410755     0.36390
N3021       N  0.99738366  0.09039034  0.31008322    -0.38430
N3022       N  0.89083876  0.15307110  0.36265575    -0.38430
N3023       N  0.99311821  0.15678849  0.30681893    -0.37870
N3024       N  0.89329155  0.08590801  0.36168794    -0.37880
C3025       C  0.91502461  0.26208158  0.19100474    -0.04540
C3026       C  0.91402779  0.24088523  0.18037608    -0.01660
C3027       C  0.91399553  0.23935599  0.15693711     0.03330
C3028       C  0.91421427  0.25881964  0.14373464    -0.04540
C3029       C  0.91663814  0.27982637  0.15397351    -0.01650
C3030       C  0.91728409  0.28150988  0.17753256     0.03330
C3031       C  0.91349053  0.22036015  0.19332681     0.37980
C3032       C  0.91825912  0.29968052  0.14018633     0.37970
C3033       C  0.91970804  0.30334336  0.18769522     0.36390
C3034       C  0.91383759  0.21760157  0.14622148     0.36390
N3035       N  0.92182405  0.32077985  0.19573705    -0.38430
N3036       N  0.91388575  0.20029914  0.13763148    -0.38430
N3037       N  0.91969433  0.31548420  0.12913859    -0.37870
N3038       N  0.91292475  0.20395540  0.20355692    -0.37880
C3039       C  0.99400978  0.23833759  0.40133798    -0.04540
C3040       C  0.97565509  0.24405441  0.41496214    -0.01660
C3041       C  0.97883529  0.24929369  0.43778150     0.03330
C3042       C  0.00022287  0.24681320  0.44797426    -0.04540
C3043       C  0.01847608  0.24000565  0.43389647    -0.01650
C3044       C  0.01527205  0.23626546  0.41086326     0.03330
C3045       C  0.95342269  0.24538461  0.40536168     0.37980
C3046       C  0.04123346  0.23761897  0.44180776     0.37970
C3047       C  0.03411302  0.23032129  0.39663704     0.36390
C3048       C  0.96029071  0.25920552  0.44987979     0.36390
N3049       N  0.04909145  0.22567131  0.38531647    -0.38430
N3050       N  0.94538175  0.26713717  0.45932777    -0.38430
N3051       N  0.06003465  0.23632745  0.44618442    -0.37870
N3052       N  0.93548595  0.24628161  0.39817477    -0.37880
C3053       C  0.59868769  0.28486224  0.52773189    -0.04540
C3054       C  0.58240343  0.27887988  0.51153789    -0.01660
C3055       C  0.55936887  0.28174290  0.51603240     0.03330
C3056       C  0.55229223  0.29063417  0.53665500    -0.04540
C3057       C  0.56836094  0.29639126  0.55291408    -0.01650
C3058       C  0.59134529  0.29372000  0.54850829     0.03330
C3059       C  0.58912955  0.27018590  0.48995493     0.37980
C3060       C  0.56117517  0.30466796  0.57457201     0.37970
C3061       C  0.60717645  0.29951934  0.56596628     0.36390
C3062       C  0.54291717  0.27593958  0.49920026     0.36390
N3063       N  0.61967114  0.30427580  0.57992767    -0.38430
N3064       N  0.52975758  0.27122418  0.48585313    -0.38430
N3065       N  0.55542349  0.31132312  0.59177231    -0.37870
N3066       N  0.59432248  0.26315203  0.47272859    -0.37880
C3067       C  0.81200441  0.21601999  0.56527405    -0.04540
C3068       C  0.82278104  0.19653411  0.57284245    -0.01660
C3069       C  0.84586753  0.19342833  0.56885150     0.03330
C3070       C  0.85800914  0.20897411  0.55557181    -0.04540
C3071       C  0.84697606  0.22850653  0.54798280    -0.01650
C3072       C  0.82435321  0.23232377  0.55348500     0.03330
C3073       C  0.81008944  0.17971638  0.58480591     0.37980
C3074       C  0.85838950  0.24427849  0.53353953     0.37970
C3075       C  0.81357572  0.25286385  0.54629743     0.36390
C3076       C  0.85709486  0.17435868  0.57883382     0.36390
N3077       N  0.80519982  0.26937085  0.54065279    -0.38430
N3078       N  0.86598829  0.15910779  0.58677075    -0.38430
N3079       N  0.86743502  0.25692078  0.52204770    -0.37870
N3080       N  0.79991200  0.16624099  0.59421153    -0.37880
C3081       C  0.60759535  0.48675225  0.50610815    -0.04540
C3082       C  0.59534099  0.50185950  0.51943140    -0.01660
C3083       C  0.57214575  0.49898558  0.52239423     0.03330
C3084       C  0.56089833  0.48111564  0.51187664    -0.04540
C3085       C  0.57311925  0.46579866  0.49882547    -0.01650
C3086       C  0.59641554  0.46857069  0.49596187     0.03330
C3087       C  0.60643142  0.52094703  0.52943155     0.37980
C3088       C  0.56163054  0.44740266  0.48810344     0.37970
C3089       C  0.60891426  0.45271277  0.48257394     0.36390
C3090       C  0.55997443  0.51459005  0.53636538     0.36390
N3091       N  0.61891690  0.44010151  0.47186566    -0.38430
N3092       N  0.55086506  0.52733714  0.54767620    -0.38430
N3093       N  0.55241303  0.43276843  0.47951165    -0.37870
N3094       N  0.61528981  0.53614808  0.53739686    -0.37880
C3095       C  0.69453483  0.40295486  0.58751300    -0.04540
C3096       C  0.70711670  0.38630784  0.59867532    -0.01660
C3097       C  0.70085234  0.36370699  0.59741295     0.03330
C3098       C  0.68438463  0.35654316  0.58190569    -0.04540
C3099       C  0.67216332  0.37328898  0.57008695    -0.01650
C3100       C  0.67668279  0.39626020  0.57355461     0.03330
C3101       C  0.72715427  0.39217072  0.61111273     0.37980
C3102       C  0.65448355  0.36733162  0.55460413     0.37970
C3103       C  0.66252745  0.41294798  0.56300904     0.36390
C3104       C  0.71091971  0.34826832  0.61312553     0.36390
N3105       N  0.65124028  0.42619782  0.55452812    -0.38430
N3106       N  0.71848928  0.33605793  0.62604665    -0.38430
N3107       N  0.64043235  0.36275857  0.54213582    -0.37870
N3108       N  0.74311456  0.39667856  0.62105226    -0.37880
C3109       C  0.16304349  0.00688018  0.44813550    -0.04540
C3110       C  0.15938285  0.02771899  0.43771425    -0.01660
C3111       C  0.15890725  0.02929575  0.41418698     0.03330
C3112       C  0.16303539  0.01019431  0.40099664    -0.04540
C3113       C  0.16745571  0.98944888  0.41160538    -0.01650
C3114       C  0.16709358  0.98778643  0.43503545     0.03330
C3115       C  0.15541652  0.04736674  0.45128782     0.37980
C3116       C  0.17233014  0.96962927  0.39850636     0.37970
C3117       C  0.16993224  0.96618012  0.44573448     0.36390
C3118       C  0.15208723  0.04999812  0.40364098     0.36390
N3119       N  0.17201183  0.94897222  0.45431711    -0.38430
N3120       N  0.14602305  0.06633379  0.39524558    -0.38430
N3121       N  0.17610356  0.95380117  0.38808414    -0.37870
N3122       N  0.15239209  0.06302837  0.46218448    -0.37880
C3123       C  0.24385354  0.09702723  0.54027146    -0.04540
C3124       C  0.24034450  0.11035105  0.55931282    -0.01660
C3125       C  0.24023381  0.13381015  0.55746588     0.03330
C3126       C  0.24444454  0.14421356  0.53658694    -0.04540
C3127       C  0.24804264  0.13078899  0.51755926    -0.01650
C3128       C  0.24716723  0.10727448  0.51930464     0.03330
C3129       C  0.23779734  0.09984945  0.58102493     0.37980
C3130       C  0.25495377  0.14102636  0.49677063     0.37970
C3131       C  0.25047903  0.09351266  0.49967528     0.36390
C3132       C  0.23592736  0.14715341  0.57723966     0.36390
N3133       N  0.25295024  0.08247819  0.48402197    -0.38430
N3134       N  0.23260988  0.15777969  0.59302579    -0.38430
N3135       N  0.26118395  0.14913734  0.48038324    -0.37870
N3136       N  0.23593560  0.09144772  0.59833282    -0.37880
C3137       C  0.80170856  0.24052056  0.75461861    -0.04540
C3138       C  0.81314236  0.25052795  0.77267078    -0.01660
C3139       C  0.83598342  0.24591497  0.77626719     0.03330
C3140       C  0.84797284  0.23226292  0.76119358    -0.04540
C3141       C  0.83675576  0.22231735  0.74313073    -0.01650
C3142       C  0.81358134  0.22586587  0.74020039     0.03330
C3143       C  0.80177953  0.26640644  0.78705558     0.37980
C3144       C  0.84909182  0.20840168  0.72760571     0.37970
C3145       C  0.80195646  0.21411133  0.72250027     0.36390
C3146       C  0.84718012  0.25564394  0.79541292     0.36390
N3147       N  0.79270392  0.20477210  0.70835118    -0.38430
N3148       N  0.85565676  0.26346369  0.81090066    -0.38430
N3149       N  0.85898043  0.19739702  0.71516554    -0.37870
N3150       N  0.79274334  0.27905894  0.79854415    -0.37880
C3151       C  0.74472945  0.26347742  0.69927867    -0.04540
C3152       C  0.73857942  0.24526497  0.68576049    -0.01660
C3153       C  0.73646073  0.24799982  0.66250352     0.03330
C3154       C  0.74034936  0.26907781  0.65251150    -0.04540
C3155       C  0.74710519  0.28717019  0.66602973    -0.01650
C3156       C  0.74901645  0.28443376  0.68939363     0.03330
C3157       C  0.73505353  0.22345157  0.69580073     0.37980
C3158       C  0.75399191  0.30798854  0.65581947     0.37970
C3159       C  0.75572397  0.30305850  0.70330223     0.36390
C3160       C  0.73058904  0.22880966  0.64901720     0.36390
N3161       N  0.76100537  0.31790488  0.71445927    -0.38430
N3162       N  0.72615355  0.21298691  0.63890214    -0.38430
N3163       N  0.76018539  0.32452465  0.64796380    -0.37870
N3164       N  0.73230529  0.20608639  0.70384289    -0.37880
C3165       C  0.41644020  0.26262872  0.68980240    -0.04540
C3166       C  0.42723665  0.24508964  0.67822491    -0.01660
C3167       C  0.42595066  0.24385879  0.65479971     0.03330
C3168       C  0.41388686  0.26017949  0.64277559    -0.04540
C3169       C  0.40408789  0.27837033  0.65429451    -0.01650
C3170       C  0.40537011  0.27957715  0.67777800     0.03330
C3171       C  0.43970836  0.22818336  0.69040511     0.37980
C3172       C  0.39242475  0.29572050  0.64200757     0.37970
C3173       C  0.39446491  0.29767523  0.68963575     0.36390
C3174       C  0.43619643  0.22519483  0.64318829     0.36390
N3175       N  0.38570961  0.31206226  0.69912899    -0.38430
N3176       N  0.44439774  0.21034917  0.63390965    -0.38430
N3177       N  0.38309991  0.30964794  0.63233982    -0.37870
N3178       N  0.44969235  0.21462106  0.69994478    -0.37880
C3179       C  0.35016465  0.20792796  0.78200864    -0.04540
C3180       C  0.34080481  0.19096832  0.79558167    -0.01660
C3181       C  0.31777406  0.19079943  0.80017815     0.03330
C3182       C  0.30290296  0.20492158  0.78819407    -0.04540
C3183       C  0.31199660  0.22062573  0.77302037    -0.01650
C3184       C  0.33547482  0.22287121  0.77076880     0.03330
C3185       C  0.35469475  0.17319930  0.80472454     0.37980
C3186       C  0.29733705  0.23442480  0.75948836     0.37970
C3187       C  0.34423045  0.24114975  0.75747105     0.36390
C3188       C  0.30979722  0.17655720  0.81815635     0.36390
N3189       N  0.35112062  0.25585709  0.74697932    -0.38430
N3190       N  0.30376525  0.16507987  0.83249068    -0.38430
N3191       N  0.28566476  0.24547984  0.74871179    -0.37870
N3192       N  0.36567792  0.15896392  0.81191281    -0.37880
C3193       C  0.56007070  0.29024742  0.80642651    -0.04540
C3194       C  0.57106386  0.28295814  0.78678495    -0.01660
C3195       C  0.59455947  0.28347514  0.78543198     0.03330
C3196       C  0.60725430  0.29079310  0.80381483    -0.04540
C3197       C  0.59639182  0.29698494  0.82380520    -0.01650
C3198       C  0.57282683  0.29712320  0.82497805     0.03330
C3199       C  0.55823631  0.27496209  0.76783160     0.37980
C3200       C  0.60953179  0.30353747  0.84304718     0.37970
C3201       C  0.56175067  0.30606841  0.84453881     0.36390
C3202       C  0.60568747  0.27732749  0.76479443     0.36390
N3203       N  0.55294986  0.31369177  0.85995375    -0.38430
N3204       N  0.61459424  0.27249538  0.74834141    -0.38430
N3205       N  0.61999940  0.30853674  0.85849305    -0.37870
N3206       N  0.54803402  0.26864039  0.75269254    -0.37880
C3207       C  0.66386058  0.84668630  0.28190042    -0.04540
C3208       C  0.65322942  0.85836384  0.26424534    -0.01660
C3209       C  0.65688297  0.88150126  0.26136163     0.03330
C3210       C  0.67145162  0.89295939  0.27582246    -0.04540
C3211       C  0.68259714  0.88119578  0.29299263    -0.01650
C3212       C  0.67861580  0.85825192  0.29620856     0.03330
C3213       C  0.63858252  0.84656834  0.24900612     0.37980
C3214       C  0.69811362  0.89264836  0.30764464     0.37970
C3215       C  0.68899931  0.84682167  0.31494720     0.36390
C3216       C  0.64550238  0.89360560  0.24370931     0.36390
N3217       N  0.69727090  0.83771228  0.32987598    -0.38430
N3218       N  0.63639363  0.90332145  0.22967492    -0.38430
N3219       N  0.71065862  0.90122857  0.31956222    -0.37870
N3220       N  0.62686522  0.83715118  0.23687593    -0.37880
C3221       C  0.60646661  0.79209873  0.30711478    -0.04540
C3222       C  0.59438171  0.80696021  0.32117034    -0.01660
C3223       C  0.57115141  0.80416621  0.32444192     0.03330
C3224       C  0.56012522  0.78570945  0.31503777    -0.04540
C3225       C  0.57234777  0.77010759  0.30221192    -0.01650
C3226       C  0.59516351  0.77367612  0.29760618     0.03330
C3227       C  0.60582785  0.82495264  0.33264160     0.37980
C3228       C  0.56141504  0.75039026  0.29333947     0.37970
C3229       C  0.60657539  0.75884973  0.28217413     0.36390
C3230       C  0.55859184  0.82015367  0.33762247     0.36390
N3231       N  0.61561421  0.74698649  0.26987605    -0.38430
N3232       N  0.54852003  0.83295849  0.34803421    -0.38430
N3233       N  0.55313613  0.73443050  0.28629460    -0.37870
N3234       N  0.61493418  0.83934123  0.34175428    -0.37880
C3235       C  0.59750900  0.46707909  0.31617103    -0.04540
C3236       C  0.58566812  0.45244068  0.33027245    -0.01660
C3237       C  0.56259652  0.44883100  0.32679505     0.03330
C3238       C  0.55140874  0.45955799  0.30889598    -0.04540
C3239       C  0.56333032  0.47433115  0.29492587    -0.01650
C3240       C  0.58618898  0.47829017  0.29873193     0.03330
C3241       C  0.59732177  0.44087771  0.34810596     0.37980
C3242       C  0.55233819  0.48479281  0.27596109     0.37970
C3243       C  0.59791003  0.49394787  0.28444250     0.36390
C3244       C  0.55035855  0.43413568  0.34166435     0.36390
N3245       N  0.60647415  0.50667118  0.27268976    -0.38430
N3246       N  0.54057815  0.42238890  0.35349612    -0.38430
N3247       N  0.54356938  0.49311740  0.26085961    -0.37870
N3248       N  0.60666606  0.43159987  0.36228020    -0.37880
C3249       C  0.72358344  0.60751152  0.33236859    -0.04540
C3250       C  0.74054937  0.62003706  0.34287044    -0.01660
C3251       C  0.73815752  0.64339580  0.34533541     0.03330
C3252       C  0.71866840  0.65428111  0.33754534    -0.04540
C3253       C  0.70166429  0.64171573  0.32719846    -0.01650
C3254       C  0.70413615  0.61848295  0.32453895     0.03330
C3255       C  0.75997406  0.60880287  0.35204412     0.37980
C3256       C  0.68116327  0.65260733  0.31997554     0.37970
C3257       C  0.68644122  0.60608354  0.31364770     0.36390
C3258       C  0.75569765  0.65627185  0.35594359     0.36390
N3259       N  0.67182966  0.59701598  0.30486111    -0.38430
N3260       N  0.76968653  0.66658290  0.36438479    -0.38430
N3261       N  0.66483669  0.66130871  0.31425966    -0.37870
N3262       N  0.77539447  0.59997224  0.35972488    -0.37880
C3263       C  0.67015137  0.51960328  0.40350177    -0.04540
C3264       C  0.68448760  0.50497183  0.41527714    -0.01660
C3265       C  0.68064633  0.50033878  0.43799956     0.03330
C3266       C  0.66308888  0.51120191  0.44949136    -0.04540
C3267       C  0.64941224  0.52673625  0.43785173    -0.01650
C3268       C  0.65260897  0.53045549  0.41479417     0.03330
C3269       C  0.70311972  0.49428170  0.40399909     0.37980
C3270       C  0.63221892  0.53915937  0.44961141     0.37970
C3271       C  0.63788115  0.54542754  0.40265443     0.36390
C3272       C  0.69423340  0.48359463  0.44918639     0.36390
N3273       N  0.62607874  0.55729311  0.39292737    -0.38430
N3274       N  0.70508675  0.47025762  0.45808027    -0.38430
N3275       N  0.61848709  0.54903532  0.45899863    -0.37870
N3276       N  0.71820279  0.48565226  0.39550108    -0.37880
C3277       C  0.84859270  0.73988418  0.25427761    -0.04540
C3278       C  0.83447527  0.72449156  0.26583171    -0.01660
C3279       C  0.81088733  0.72665282  0.26488450     0.03330
C3280       C  0.80097840  0.74459695  0.25326025    -0.04540
C3281       C  0.81483222  0.76072295  0.24306259    -0.01650
C3282       C  0.83819847  0.75787341  0.24250984     0.03330
C3283       C  0.84377066  0.70613712  0.27869982     0.37980
C3284       C  0.80493237  0.78060854  0.23309549     0.37970
C3285       C  0.85103382  0.77363403  0.22922810     0.36390
C3286       C  0.79677323  0.71008348  0.27556930     0.36390
N3287       N  0.86102224  0.78620076  0.21844695    -0.38430
N3288       N  0.78551270  0.69693407  0.28417123    -0.38430
N3289       N  0.79702771  0.79637870  0.22513038    -0.37870
N3290       N  0.85096591  0.69149480  0.28911540    -0.37880
C3291       C  0.99177256  0.85601919  0.28459112    -0.04540
C3292       C  0.00513079  0.86772082  0.26919125    -0.01660
C3293       C  0.00664461  0.89120158  0.27045082     0.03330
C3294       C  0.99485489  0.90303929  0.28722946    -0.04540
C3295       C  0.98057119  0.89133617  0.30185877    -0.01650
C3296       C  0.97902458  0.86791666  0.30052489     0.03330
C3297       C  0.01812280  0.85551128  0.25279277     0.37980
C3298       C  0.96833337  0.90321796  0.31909161     0.37970
C3299       C  0.96443757  0.85608552  0.31585518     0.36390
C3300       C  0.02073965  0.90316967  0.25478105     0.36390
N3301       N  0.95271541  0.84699150  0.32824363    -0.38430
N3302       N  0.03206032  0.91274011  0.24237462    -0.38430
N3303       N  0.95854028  0.91269860  0.33279618    -0.37870
N3304       N  0.02855716  0.84573053  0.23978832    -0.37880
C3305       C  0.21528116  0.46061164  0.19001593    -0.04540
C3306       C  0.22636516  0.44299899  0.17923424    -0.01660
C3307       C  0.22553029  0.44118305  0.15577557     0.03330
C3308       C  0.21237016  0.45631273  0.14290219    -0.04540
C3309       C  0.20144454  0.47416334  0.15396462    -0.01650
C3310       C  0.20340937  0.47658264  0.17731133     0.03330
C3311       C  0.23817812  0.42638234  0.19242920     0.37980
C3312       C  0.18710987  0.48945198  0.14170516     0.37970
C3313       C  0.19277601  0.49541917  0.18824819     0.36390
C3314       C  0.23836468  0.42356391  0.14522644     0.36390
N3315       N  0.18424003  0.51068090  0.19648776    -0.38430
N3316       N  0.24872694  0.40916625  0.13755363    -0.38430
N3317       N  0.17569165  0.50171852  0.13201116    -0.37870
N3318       N  0.24742330  0.41306713  0.20300296    -0.37880
C3319       C  0.30944228  0.50896040  0.25741719    -0.04540
C3320       C  0.32334431  0.52790115  0.25512934    -0.01660
C3321       C  0.34683159  0.52542934  0.25566314     0.03330
C3322       C  0.35650275  0.50406136  0.25834363    -0.04540
C3323       C  0.34271732  0.48540130  0.26199007    -0.01650
C3324       C  0.31929660  0.48781224  0.26173599     0.03330
C3325       C  0.31358582  0.54975615  0.25122659     0.37980
C3326       C  0.35275072  0.46356992  0.26541766     0.37970
C3327       C  0.30542305  0.46847554  0.26639082     0.36390
C3328       C  0.36113363  0.54475867  0.25276604     0.36390
N3329       N  0.29438885  0.45305865  0.27014653    -0.38430
N3330       N  0.37256780  0.56017830  0.25055184    -0.38430
N3331       N  0.36081747  0.44619610  0.26814905    -0.37870
N3332       N  0.30579525  0.56719235  0.24810176    -0.37880
C3333       C  0.30136725  0.70963336  0.28990883    -0.04540
C3334       C  0.30818588  0.72588550  0.27418655    -0.01660
C3335       C  0.33113611  0.72933913  0.26951850     0.03330
C3336       C  0.34788304  0.71542983  0.27932543    -0.04540
C3337       C  0.34079653  0.69889116  0.29490490    -0.01650
C3338       C  0.31807872  0.69704354  0.30104264     0.03330
C3339       C  0.29161195  0.73916786  0.26251183     0.37980
C3340       C  0.35650013  0.68325718  0.30487407     0.37970
C3341       C  0.31215110  0.68247733  0.31955547     0.36390
C3342       C  0.33705150  0.74771764  0.25482493     0.36390
N3343       N  0.30772751  0.67076580  0.33428243    -0.38430
N3344       N  0.34157023  0.76253822  0.24325325    -0.38430
N3345       N  0.36864888  0.67056253  0.31299720    -0.37870
N3346       N  0.27831405  0.74995015  0.25351733    -0.37880
C3347       C  0.24352344  0.65175298  0.30154424    -0.04540
C3348       C  0.24934589  0.64135860  0.32191038    -0.01660
C3349       C  0.25017230  0.61786335  0.32347359     0.03330
C3350       C  0.24386514  0.60462457  0.30508626    -0.04540
C3351       C  0.23696900  0.61513890  0.28499078    -0.01650
C3352       C  0.23717936  0.63861385  0.28314793     0.03330
C3353       C  0.25500310  0.65495094  0.34111835     0.37980
C3354       C  0.22973550  0.60184979  0.26607238     0.37970
C3355       C  0.23155737  0.64928578  0.26211585     0.36390
C3356       C  0.25964782  0.60743383  0.34314530     0.36390
N3357       N  0.22715238  0.65782353  0.24533501    -0.38430
N3358       N  0.26792157  0.59925247  0.35858238    -0.38430
N3359       N  0.22402190  0.59126927  0.25096273    -0.37870
N3360       N  0.25932052  0.66585569  0.35645457    -0.37880
C3361       C  0.19641427  0.84565322  0.25388740    -0.04540
C3362       C  0.20717565  0.85672504  0.27179880    -0.01660
C3363       C  0.20504757  0.88007890  0.27429607     0.03330
C3364       C  0.19312521  0.89279872  0.25837679    -0.04540
C3365       C  0.18215994  0.88199262  0.24072919    -0.01650
C3366       C  0.18319672  0.85852072  0.23881028     0.03330
C3367       C  0.22152069  0.84446577  0.28706772     0.37980
C3368       C  0.17027777  0.89518367  0.22416943     0.37970
C3369       C  0.17050930  0.84794015  0.22114435     0.36390
C3370       C  0.21559627  0.89102225  0.29314037     0.36390
N3371       N  0.16025298  0.84022040  0.20672737    -0.38430
N3372       N  0.22406369  0.89929014  0.30839724    -0.38430
N3373       N  0.16097391  0.90576101  0.21090383    -0.37870
N3374       N  0.23294779  0.83476168  0.29931112    -0.37880
C3375       C  0.21251469  0.78605512  0.19920148    -0.04540
C3376       C  0.23337630  0.78160780  0.18925931    -0.01660
C3377       C  0.23543187  0.78092049  0.16574717     0.03330
C3378       C  0.21674450  0.78595501  0.15195954    -0.04540
C3379       C  0.19554380  0.78929192  0.16224700    -0.01650
C3380       C  0.19344645  0.78845632  0.18563222     0.03330
C3381       C  0.25289250  0.77831827  0.20317130     0.37980
C3382       C  0.17555897  0.79342513  0.14906550     0.37970
C3383       C  0.17148621  0.78980113  0.19591421     0.36390
C3384       C  0.25698751  0.77551849  0.15601572     0.36390
N3385       N  0.15398043  0.79052312  0.20412023    -0.38430
N3386       N  0.27415773  0.77091889  0.14836135    -0.38430
N3387       N  0.15961119  0.79700039  0.13869326    -0.37870
N3388       N  0.26872525  0.77573844  0.21395208    -0.37880
C3389       C  0.10470365  0.75888497  0.33563572    -0.04540
C3390       C  0.09138101  0.73981339  0.33878204    -0.01660
C3391       C  0.06797202  0.74173426  0.34010329     0.03330
C3392       C  0.05735941  0.76276222  0.33657076    -0.04540
C3393       C  0.07094582  0.78144924  0.33082684    -0.01650
C3394       C  0.09453581  0.77949762  0.33074394     0.03330
C3395       C  0.10197460  0.71799402  0.34017589     0.37980
C3396       C  0.06098997  0.80286028  0.32527892     0.37970
C3397       C  0.10844646  0.79861822  0.32551676     0.36390
C3398       C  0.05514674  0.72169181  0.34481551     0.36390
N3399       N  0.11959184  0.81378104  0.32111854    -0.38430
N3400       N  0.04509500  0.70566877  0.34879955    -0.38430
N3401       N  0.05316976  0.81993062  0.32058075    -0.37870
N3402       N  0.11047612  0.70062961  0.34097844    -0.37880
C3403       C  0.16808700  0.51713995  0.90306807    -0.04540
C3404       C  0.16644341  0.53539268  0.91795937    -0.01660
C3405       C  0.16409466  0.53157846  0.94111854     0.03330
C3406       C  0.16378844  0.50956227  0.94951688    -0.04540
C3407       C  0.16564699  0.49136898  0.93477221    -0.01650
C3408       C  0.16744567  0.49506539  0.91164596     0.03330
C3409       C  0.16623991  0.55806498  0.90939518     0.37980
C3410       C  0.16580420  0.46872433  0.94351846     0.37970
C3411       C  0.16893745  0.47590638  0.89691502     0.36390
C3412       C  0.16145274  0.55024190  0.95630028     0.36390
N3413       N  0.16982537  0.46030089  0.88557971    -0.38430
N3414       N  0.15928712  0.56509383  0.96845667    -0.38430
N3415       N  0.16604597  0.45069872  0.95051096    -0.37870
N3416       N  0.16601015  0.57614364  0.90253136    -0.37880
C3417       C  0.18622098  0.39318194  0.76113479    -0.04540
C3418       C  0.16991527  0.37681043  0.76646697    -0.01660
C3419       C  0.17497346  0.35385757  0.76439073     0.03330
C3420       C  0.19618438  0.34701490  0.75669791    -0.04540
C3421       C  0.21246082  0.36315985  0.75133874    -0.01650
C3422       C  0.20761070  0.38606522  0.75352411     0.03330
C3423       C  0.14766613  0.38340515  0.77357584     0.37980
C3424       C  0.23449922  0.35610922  0.74386612     0.37970
C3425       C  0.22519980  0.40204626  0.74859130     0.36390
C3426       C  0.15815821  0.33722866  0.76972580     0.36390
N3427       N  0.23929578  0.41465039  0.74456172    -0.38430
N3428       N  0.14482521  0.32392308  0.77406142    -0.38430
N3429       N  0.25200495  0.35044938  0.73785503    -0.37870
N3430       N  0.12991503  0.38860489  0.77928049    -0.37880
C3431       C  0.30075712  0.51203886  0.58810903    -0.04540
C3432       C  0.31276149  0.52923100  0.59907596    -0.01660
C3433       C  0.33597542  0.53173217  0.59555036     0.03330
C3434       C  0.34724640  0.51748129  0.58065663    -0.04540
C3435       C  0.33523128  0.50074327  0.56919462    -0.01650
C3436       C  0.31216809  0.49784177  0.57310051     0.03330
C3437       C  0.30126922  0.54472357  0.61367848     0.37980
C3438       C  0.34654495  0.48631113  0.55336130     0.37970
C3439       C  0.30039632  0.47968278  0.56220540     0.36390
C3440       C  0.34834473  0.54889149  0.60732304     0.36390
N3441       N  0.29101056  0.46522002  0.55350279    -0.38430
N3442       N  0.35825720  0.56251370  0.61676381    -0.38430
N3443       N  0.35510728  0.47462223  0.54057798    -0.37870
N3444       N  0.29246931  0.55738638  0.62531215    -0.37880
C3445       C  0.24388487  0.49153289  0.64493064    -0.04540
C3446       C  0.24540715  0.50876178  0.66083203    -0.01660
C3447       C  0.24363495  0.50393221  0.68374974     0.03330
C3448       C  0.23918624  0.48180710  0.69103558    -0.04540
C3449       C  0.23673394  0.46467069  0.67491072    -0.01650
C3450       C  0.23924592  0.46952921  0.65195218     0.03330
C3451       C  0.24768171  0.53176865  0.65350707     0.37980
C3452       C  0.23217636  0.44190704  0.68185570     0.37970
C3453       C  0.23716746  0.45188697  0.63551330     0.36390
C3454       C  0.24573908  0.52214369  0.69960906     0.36390
N3455       N  0.23539894  0.43788033  0.62233994    -0.38430
N3456       N  0.24765814  0.53677700  0.71206333    -0.38430
N3457       N  0.22847379  0.42374446  0.68734724    -0.37870
N3458       N  0.24900873  0.55019842  0.64784054    -0.37880
C3459       C  0.16512509  0.40274772  0.55843265    -0.04540
C3460       C  0.18019053  0.39127357  0.54434297    -0.01660
C3461       C  0.18193373  0.36784608  0.54553192     0.03330
C3462       C  0.16848662  0.35565993  0.56061198    -0.04540
C3463       C  0.15434437  0.36707699  0.57553055    -0.01650
C3464       C  0.15280516  0.39059327  0.57460807     0.03330
C3465       C  0.19303940  0.40334964  0.52769684     0.37980
C3466       C  0.14062926  0.35454343  0.59107361     0.37970
C3467       C  0.13818205  0.40226750  0.59001630     0.36390
C3468       C  0.19740586  0.35627664  0.53087056     0.36390
N3469       N  0.12645745  0.41159079  0.60224086    -0.38430
N3470       N  0.20985831  0.34737707  0.51905845    -0.38430
N3471       N  0.12961144  0.34449799  0.60337633    -0.37870
N3472       N  0.20333739  0.41296777  0.51446330    -0.37880
C3473       C  0.19679369  0.53921865  0.40179608    -0.04540
C3474       C  0.18312361  0.52593897  0.41611338    -0.01660
C3475       C  0.18601956  0.52670483  0.43959329     0.03330
C3476       C  0.20377966  0.53905709  0.44900263    -0.04540
C3477       C  0.21875238  0.55021701  0.43463549    -0.01650
C3478       C  0.21395764  0.55224161  0.41178426     0.03330
C3479       C  0.16568982  0.51170323  0.40715794     0.37980
C3480       C  0.23905489  0.56021334  0.44350462     0.37970
C3481       C  0.22577276  0.56933404  0.39936991     0.36390
C3482       C  0.17027017  0.51523772  0.45401861     0.36390
N3483       N  0.23488604  0.58344477  0.38985229    -0.38430
N3484       N  0.15772004  0.50604425  0.46549766    -0.38430
N3485       N  0.25519476  0.56818905  0.45054572    -0.37870
N3486       N  0.15178843  0.50022355  0.40019747    -0.37880
C3487       C  0.46508175  0.40332589  0.75553224    -0.04540
C3488       C  0.44581265  0.39090050  0.76085784    -0.01660
C3489       C  0.44670202  0.36743008  0.76127928     0.03330
C3490       C  0.46692870  0.35615021  0.75625660    -0.04540
C3491       C  0.48652675  0.36867897  0.75211664    -0.01650
C3492       C  0.48553350  0.39224331  0.75160796     0.03330
C3493       C  0.42478821  0.40232822  0.76506854     0.37980
C3494       C  0.50749573  0.35738342  0.74751867     0.37970
C3495       C  0.50539018  0.40515422  0.74654315     0.36390
C3496       C  0.42676873  0.35496984  0.76730738     0.36390
N3497       N  0.52122060  0.41550043  0.74253780    -0.38430
N3498       N  0.41087500  0.34506322  0.77211452    -0.38430
N3499       N  0.52423252  0.34835759  0.74388768    -0.37870
N3500       N  0.40806080  0.41149126  0.76838089    -0.37880
C3501       C  0.44465680  0.45864039  0.69813954    -0.04540
C3502       C  0.42984577  0.44421672  0.68650148    -0.01660
C3503       C  0.42616750  0.44706123  0.66340041     0.03330
C3504       C  0.43602784  0.46511773  0.65208344    -0.04540
C3505       C  0.44980586  0.48021906  0.66385116    -0.01650
C3506       C  0.45465797  0.47662624  0.68657849     0.03330
C3507       C  0.41804344  0.42661850  0.69827968     0.37980
C3508       C  0.45939303  0.49941450  0.65257729     0.37970
C3509       C  0.47075321  0.49094967  0.69768779     0.36390
C3510       C  0.41220806  0.43146126  0.65124557     0.36390
N3511       N  0.48357620  0.50238758  0.70651980    -0.38430
N3512       N  0.40118124  0.41895290  0.64150102    -0.38430
N3513       N  0.46711599  0.51497949  0.64411780    -0.37870
N3514       N  0.40866959  0.41254180  0.70764159    -0.37880
C3515       C  0.35659690  0.53872822  0.78453934    -0.04540
C3516       C  0.34655494  0.54248407  0.76353087    -0.01660
C3517       C  0.32329004  0.53974182  0.76085196     0.03330
C3518       C  0.31005956  0.53290631  0.77910204    -0.04540
C3519       C  0.32030773  0.52845290  0.79993796    -0.01650
C3520       C  0.34350325  0.53139051  0.80262184     0.03330
C3521       C  0.36023220  0.54875342  0.74457119     0.37980
C3522       C  0.30726635  0.52032978  0.81864007     0.37970
C3523       C  0.35396024  0.52698578  0.82406362     0.36390
C3524       C  0.31285231  0.54461038  0.73952713     0.36390
N3525       N  0.36235196  0.52339775  0.84110711    -0.38430
N3526       N  0.30448001  0.54861298  0.72256523    -0.38430
N3527       N  0.29750606  0.51376986  0.83396379    -0.37870
N3528       N  0.37105586  0.55343385  0.72926328    -0.37880
C3529       C  0.34974010  0.53792513  0.05978876    -0.04540
C3530       C  0.33851978  0.55501991  0.07137016    -0.01660
C3531       C  0.31495426  0.55646011  0.07046586     0.03330
C3532       C  0.30252270  0.54155241  0.05682668    -0.04540
C3533       C  0.31385773  0.52378564  0.04612023    -0.01650
C3534       C  0.33726786  0.52173005  0.04805241     0.03330
C3535       C  0.35129687  0.57151461  0.08363748     0.37980
C3536       C  0.30179341  0.50823576  0.03199517     0.37970
C3537       C  0.34846635  0.50307112  0.03739070     0.36390
C3538       C  0.30355393  0.57345763  0.08346373     0.36390
N3539       N  0.35674119  0.48787071  0.02878854    -0.38430
N3540       N  0.29447014  0.58706747  0.09376205    -0.38430
N3541       N  0.29223954  0.49574434  0.02078321    -0.37870
N3542       N  0.36151897  0.58475073  0.09329639    -0.37880
C3543       C  0.41376466  0.48754198  0.15094052    -0.04540
C3544       C  0.39962266  0.50405662  0.16067790    -0.01660
C3545       C  0.39982456  0.50772211  0.18382620     0.03330
C3546       C  0.41124838  0.49290108  0.19824504    -0.04540
C3547       C  0.42433516  0.47560088  0.18896726    -0.01650
C3548       C  0.42623549  0.47336203  0.16550219     0.03330
C3549       C  0.38409955  0.51722612  0.14734117     0.37980
C3550       C  0.43565132  0.45983101  0.20354068     0.37970
C3551       C  0.44120700  0.45640517  0.15675459     0.36390
C3552       C  0.38849152  0.52731163  0.19271789     0.36390
N3553       N  0.45326413  0.44288393  0.14995572    -0.38430
N3554       N  0.37945002  0.54296155  0.19958959    -0.38430
N3555       N  0.44471578  0.44728964  0.21516606    -0.37870
N3556       N  0.37160458  0.52770629  0.13689782    -0.37880
C3557       C  0.49317688  0.50615131  0.89216199    -0.04540
C3558       C  0.48962919  0.52719331  0.90206259    -0.01660
C3559       C  0.48926339  0.52929996  0.92556203     0.03330
C3560       C  0.49232993  0.51021354  0.93932948    -0.04540
C3561       C  0.49447421  0.48889834  0.92909704    -0.01650
C3562       C  0.49508170  0.48699298  0.90570276     0.03330
C3563       C  0.48717973  0.54678922  0.88799754     0.37980
C3564       C  0.49561175  0.46862140  0.94241286     0.37970
C3565       C  0.49810146  0.46521800  0.89542593     0.36390
C3566       C  0.48655271  0.55128354  0.93536029     0.36390
N3567       N  0.50060175  0.44791607  0.88719586    -0.38430
N3568       N  0.48432291  0.56884076  0.94312132    -0.38430
N3569       N  0.49656623  0.45242595  0.95294912    -0.37870
N3570       N  0.48516266  0.56237215  0.87672011    -0.37880
C3571       C  0.45013878  0.65149533  0.00862358    -0.04540
C3572       C  0.46886130  0.63728319  0.00980114    -0.01660
C3573       C  0.46601284  0.61394696  0.00969779     0.03330
C3574       C  0.44428354  0.60454719  0.00795887    -0.04540
C3575       C  0.42545177  0.61889461  0.00809227    -0.01650
C3576       C  0.42841585  0.64230820  0.00841660     0.03330
C3577       C  0.49117108  0.64679447  0.01049723     0.37980
C3578       C  0.40305932  0.60971353  0.00691086     0.37970
C3579       C  0.40914862  0.65704120  0.00762154     0.36390
C3580       C  0.48560220  0.59972071  0.01184335     0.36390
N3581       N  0.39381873  0.66885177  0.00702666    -0.38430
N3582       N  0.50123081  0.58841522  0.01356724    -0.38430
N3583       N  0.38517304  0.60241751  0.00599614    -0.37870
N3584       N  0.50893271  0.65442056  0.01101010    -0.37880
C3585       C  0.31046536  0.73568384  0.08466064    -0.04540
C3586       C  0.32151452  0.75424367  0.07503672    -0.01660
C3587       C  0.34495412  0.75606590  0.07625283     0.03330
C3588       C  0.35756243  0.73951531  0.08732943    -0.04540
C3589       C  0.34664555  0.72053099  0.09622039    -0.01650
C3590       C  0.32313852  0.71853501  0.09472250     0.03330
C3591       C  0.30878181  0.77173197  0.06400174     0.37980
C3592       C  0.35960925  0.70327860  0.10728697     0.37970
C3593       C  0.31191749  0.69941264  0.10444322     0.36390
C3594       C  0.35602143  0.77555642  0.06699535     0.36390
N3595       N  0.30294138  0.68417329  0.11223822    -0.38430
N3596       N  0.36488150  0.79106310  0.05960518    -0.38430
N3597       N  0.36996408  0.68953245  0.11614318    -0.37870
N3598       N  0.29885683  0.78584930  0.05523666    -0.37880
C3599       C  0.41477337  0.75984990  0.14321173    -0.04540
C3600       C  0.41728965  0.74184016  0.15814133    -0.01660
C3601       C  0.41933403  0.74576967  0.18123194     0.03330
C3602       C  0.41939447  0.76791396  0.18963294    -0.04540
C3603       C  0.41716581  0.78598299  0.17453615    -0.01650
C3604       C  0.41470076  0.78192954  0.15141414     0.03330
C3605       C  0.41774841  0.71913723  0.14962177     0.37980
C3606       C  0.41640885  0.80870089  0.18286229     0.37970
C3607       C  0.41153006  0.80041539  0.13606583     0.36390
C3608       C  0.42165410  0.72677620  0.19611499     0.36390
N3609       N  0.40895684  0.81512506  0.12377398    -0.38430
N3610       N  0.42324306  0.71126924  0.20755308    -0.38430
N3611       N  0.41572252  0.82682131  0.18953213    -0.37870
N3612       N  0.41819464  0.70107701  0.14277504    -0.37880
C3613       C  0.96571687  0.39364005  0.58503964    -0.04540
C3614       C  0.94420831  0.38362022  0.58658440    -0.01660
C3615       C  0.94198525  0.36020831  0.58724708     0.03330
C3616       C  0.96102591  0.34636655  0.58611424    -0.04540
C3617       C  0.98234515  0.35606316  0.58353411    -0.01650
C3618       C  0.98472802  0.37958442  0.58282519     0.03330
C3619       C  0.92404081  0.39718699  0.58703043     0.37980
C3620       C  0.00193669  0.34179036  0.58269192     0.37970
C3621       C  0.00688370  0.38913712  0.58057673     0.36390
C3622       C  0.91997427  0.35022861  0.58963421     0.36390
N3623       N  0.02458063  0.39670170  0.57866814    -0.38430
N3624       N  0.90248683  0.34222579  0.59165180    -0.38430
N3625       N  0.01754984  0.33036293  0.58214592    -0.37870
N3626       N  0.90792297  0.40791495  0.58745197    -0.37880
C3627       C  0.84903297  0.53766386  0.56028332    -0.04540
C3628       C  0.83703048  0.52277876  0.54647248    -0.01660
C3629       C  0.81369776  0.52499539  0.54395897     0.03330
C3630       C  0.80200623  0.54180098  0.55571190    -0.04540
C3631       C  0.81390952  0.55565120  0.57082189    -0.01650
C3632       C  0.83739229  0.55381421  0.57277777     0.03330
C3633       C  0.84866995  0.50535188  0.53429790     0.37980
C3634       C  0.80206551  0.57200167  0.58422878     0.37970
C3635       C  0.84969988  0.56909873  0.58694074     0.36390
C3636       C  0.80203723  0.51071439  0.52823904     0.36390
N3637       N  0.85955564  0.58136447  0.59813755    -0.38430
N3638       N  0.79276636  0.49927649  0.51574060    -0.38430
N3639       N  0.79269634  0.58511306  0.59490623    -0.37870
N3640       N  0.85737230  0.49121850  0.52439657    -0.37880
C3641       C  0.06058279  0.46082749  0.53367297    -0.04540
C3642       C  0.07262146  0.47533087  0.54783861    -0.01660
C3643       C  0.09609921  0.47389547  0.54918293     0.03330
C3644       C  0.10782142  0.45819575  0.53601621    -0.04540
C3645       C  0.09579541  0.44484650  0.52058576    -0.01650
C3646       C  0.07222025  0.44595898  0.51967198     0.03330
C3647       C  0.06092847  0.49161003  0.56146279     0.37980
C3648       C  0.10766267  0.42972955  0.50582137     0.37970
C3649       C  0.05986380  0.43126482  0.50493839     0.36390
C3650       C  0.10795906  0.48783418  0.56506225     0.36390
N3651       N  0.04996159  0.41947574  0.49328006    -0.38430
N3652       N  0.11738189  0.49902464  0.57767110    -0.38430
N3653       N  0.11713205  0.41761768  0.49410300    -0.37870
N3654       N  0.05219492  0.50482901  0.57252882    -0.37880
C3655       C  0.91400209  0.48976919  0.69993642    -0.04540
C3656       C  0.92845897  0.50424196  0.68820403    -0.01660
C3657       C  0.93009653  0.50284378  0.66478230     0.03330
C3658       C  0.91724126  0.48704909  0.65287690    -0.04540
C3659       C  0.90368528  0.47182819  0.66458196    -0.01650
C3660       C  0.90211016  0.47311062  0.68806100     0.03330
C3661       C  0.94082364  0.52137665  0.70004853     0.37980
C3662       C  0.89065667  0.45549105  0.65236694     0.37970
C3663       C  0.88795674  0.45746141  0.69995318     0.36390
C3664       C  0.94490180  0.51794408  0.65293321     0.36390
N3665       N  0.87659374  0.44493914  0.70930901    -0.38430
N3666       N  0.95680555  0.53011017  0.64377697    -0.38430
N3667       N  0.88021172  0.44252701  0.64257780    -0.37870
N3668       N  0.95072215  0.53500384  0.70949909    -0.37880
C3669       C  0.99078671  0.35544548  0.77863997    -0.04540
C3670       C  0.99562325  0.36289515  0.80061920    -0.01660
C3671       C  0.99764914  0.38587836  0.80518215     0.03330
C3672       C  0.99499980  0.40175337  0.78796756    -0.04540
C3673       C  0.99017750  0.39453074  0.76609429    -0.01650
C3674       C  0.98811673  0.37149164  0.76140140     0.03330
C3675       C  0.99793666  0.34714122  0.81893818     0.37980
C3676       C  0.98795538  0.41082945  0.74828618     0.37970
C3677       C  0.98399884  0.36436828  0.73863176     0.36390
C3678       C  0.00231807  0.39330607  0.82779143     0.36390
N3679       N  0.98073418  0.35869204  0.72046199    -0.38430
N3680       N  0.00608126  0.39928663  0.84576447    -0.38430
N3681       N  0.98616928  0.42387487  0.73412194    -0.37870
N3682       N  0.99993277  0.33474607  0.83365127    -0.37880
C3683       C  0.05152066  0.45851544  0.80695542    -0.04540
C3684       C  0.06656741  0.45901717  0.78888590    -0.01660
C3685       C  0.08966681  0.46119286  0.79275861     0.03330
C3686       C  0.09792308  0.46329823  0.81485598    -0.04540
C3687       C  0.08273229  0.46284802  0.83296058    -0.01650
C3688       C  0.05959564  0.46034303  0.82899215     0.03330
C3689       C  0.05816097  0.45731115  0.76619416     0.37980
C3690       C  0.09094944  0.46404259  0.85571041     0.37970
C3691       C  0.04410308  0.45901699  0.84757006     0.36390
C3692       C  0.10470793  0.46164633  0.77374837     0.36390
N3693       N  0.03168956  0.45790230  0.86234532    -0.38430
N3694       N  0.11640641  0.46175115  0.75836430    -0.38430
N3695       N  0.09753143  0.46492766  0.87385606    -0.37870
N3696       N  0.05140226  0.45596899  0.74814345    -0.37880
C3697       C  0.97166887  0.53387947  0.94004723    -0.04540
C3698       C  0.96045026  0.51787342  0.92689726    -0.01660
C3699       C  0.95534116  0.52241092  0.90431283     0.03330
C3700       C  0.96294285  0.54238299  0.89400372    -0.04540
C3701       C  0.97467527  0.55819502  0.90742823    -0.01650
C3702       C  0.97821906  0.55421762  0.93041117     0.03330
C3703       C  0.95333491  0.49693913  0.93686901     0.37980
C3704       C  0.98345849  0.57872323  0.89812232     0.37970
C3705       C  0.98876096  0.57109394  0.94425637     0.36390
C3706       C  0.94104204  0.50698102  0.89229171     0.36390
N3707       N  0.99698454  0.58459244  0.95534924    -0.38430
N3708       N  0.92961828  0.49463652  0.88278873    -0.38430
N3709       N  0.99050484  0.59554694  0.89177031    -0.37870
N3710       N  0.94771036  0.48018184  0.94469286    -0.37880
C3711       C  0.06124555  0.48198168  0.01169001    -0.04540
C3712       C  0.07138920  0.50201040  0.01905258    -0.01660
C3713       C  0.09455778  0.50532329  0.01639164     0.03330
C3714       C  0.10783240  0.48871007  0.00633731    -0.04540
C3715       C  0.09781015  0.46864209  0.99903219    -0.01650
C3716       C  0.07457949  0.46526228  0.00175722     0.03330
C3717       C  0.05825372  0.51938387  0.02960830     0.37980
C3718       C  0.11143220  0.45152214  0.98861775     0.37970
C3719       C  0.06431147  0.44490395  0.99368710     0.36390
C3720       C  0.10470029  0.52618968  0.02342309     0.36390
N3721       N  0.05623305  0.42867206  0.98704343    -0.38430
N3722       N  0.11282137  0.54280545  0.02899130    -0.38430
N3723       N  0.12229127  0.43784292  0.98031874    -0.37870
N3724       N  0.04864602  0.53380513  0.03815454    -0.37880
C3725       C  0.99034813  0.39297307  0.06453785    -0.04540
C3726       C  0.00007128  0.38559732  0.04414825    -0.01660
C3727       C  0.00195087  0.36262073  0.03941801     0.03330
C3728       C  0.99456331  0.34650784  0.05498668    -0.04540
C3729       C  0.98481544  0.35359352  0.07521540    -0.01650
C3730       C  0.98273848  0.37661741  0.08003424     0.03330
C3731       C  0.00759880  0.40139921  0.02734390     0.37980
C3732       C  0.97730428  0.33713479  0.09136895     0.37970
C3733       C  0.97302849  0.38318432  0.10124390     0.36390
C3734       C  0.01113638  0.35554702  0.01808850     0.36390
N3735       N  0.96515083  0.38829329  0.11813427    -0.38430
N3736       N  0.01853796  0.34999407  0.00112848    -0.38430
N3737       N  0.97121706  0.32397446  0.10415537    -0.37870
N3738       N  0.01365958  0.41388739  0.01389045    -0.37880
C3739       C  0.05874718  0.95939353  0.03199159    -0.04540
C3740       C  0.06971973  0.96283233  0.05268868    -0.01660
C3741       C  0.09322297  0.96262028  0.05387918     0.03330
C3742       C  0.10608416  0.95922242  0.03445800    -0.04540
C3743       C  0.09532120  0.95657536  0.01368195    -0.01650
C3744       C  0.07169793  0.95642096  0.01245656     0.03330
C3745       C  0.05693429  0.96674243  0.07292902     0.37980
C3746       C  0.10863321  0.95366861  0.99367228     0.37970
C3747       C  0.06078384  0.95160500  0.99141317     0.36390
C3748       C  0.10427554  0.96512808  0.07532892     0.36390
N3749       N  0.05205510  0.94738762  0.97470562    -0.38430
N3750       N  0.11315862  0.96702989  0.09238348    -0.38430
N3751       N  0.11930546  0.95151907  0.97770366    -0.37870
N3752       N  0.04679119  0.96975773  0.08910341    -0.37880
C3753       C  0.94200633  0.10642077  0.00730942    -0.04540
C3754       C  0.92618803  0.11770546  0.99403510    -0.01660
C3755       C  0.92678775  0.14120318  0.99247284     0.03330
C3756       C  0.94340605  0.15345638  0.00401864    -0.04540
C3757       C  0.95853597  0.14211272  0.01815957    -0.01650
C3758       C  0.95775950  0.11868340  0.01986156     0.03330
C3759       C  0.90998805  0.10507071  0.98122050     0.37980
C3760       C  0.97566320  0.15437613  0.03014752     0.37970
C3761       C  0.97338227  0.10719037  0.03447079     0.36390
C3762       C  0.91044980  0.15272964  0.97874518     0.36390
N3763       N  0.98591748  0.09825416  0.04619853    -0.38430
N3764       N  0.89734027  0.16177198  0.96775305    -0.38430
N3765       N  0.98928509  0.16414941  0.03975185    -0.37870
N3766       N  0.89715617  0.09497380  0.97089704    -0.37880
C3767       C  0.91591172  0.98851950  0.15131154    -0.04540
C3768       C  0.93136872  0.00093001  0.16404301    -0.01660
C3769       C  0.92887169  0.00265047  0.18740527     0.03330
C3770       C  0.91145029  0.99102064  0.19844403    -0.04540
C3771       C  0.89700730  0.97723654  0.18558273    -0.01650
C3772       C  0.89887519  0.97655354  0.16210787     0.03330
C3773       C  0.94972920  0.01235499  0.15309250     0.37980
C3774       C  0.88016512  0.96351334  0.19623305     0.37970
C3775       C  0.88290452  0.96396545  0.14892422     0.36390
C3776       C  0.94361660  0.01740721  0.19972122     0.36390
N3777       N  0.87010619  0.95408437  0.13835149    -0.38430
N3778       N  0.95545465  0.02914736  0.20947934    -0.38430
N3779       N  0.86650948  0.95231128  0.20405104    -0.37870
N3780       N  0.96458496  0.02149284  0.14475861    -0.37880
C3781       C  0.91428232  0.65244414  0.03722852    -0.04540
C3782       C  0.92290377  0.64526653  0.01653247    -0.01660
C3783       C  0.92538793  0.62222107  0.01199473     0.03330
C3784       C  0.91922174  0.60597145  0.02820496    -0.04540
C3785       C  0.91066440  0.61344165  0.04908525    -0.01650
C3786       C  0.90845250  0.63644709  0.05354320     0.03330
C3787       C  0.92866990  0.66164068  0.99960292     0.37980
C3788       C  0.90453166  0.59773462  0.06654890     0.37970
C3789       C  0.90040503  0.64373610  0.07525681     0.36390
C3790       C  0.93383421  0.61547808  0.99031002     0.36390
N3791       N  0.89391990  0.64957400  0.09249484    -0.38430
N3792       N  0.94066996  0.61020691  0.97302237    -0.38430
N3793       N  0.89948372  0.58536334  0.08052774    -0.37870
N3794       N  0.93330615  0.67474592  0.98616826    -0.37880
C3795       C  0.09826204  0.76442300  0.00884210    -0.04540
C3796       C  0.08557526  0.75145681  0.02391065    -0.01660
C3797       C  0.06227698  0.74908524  0.02096789     0.03330
C3798       C  0.05120260  0.76046883  0.00339181    -0.04540
C3799       C  0.06390748  0.77479764  0.98933013    -0.01650
C3800       C  0.08736746  0.77628268  0.99173775     0.03330
C3801       C  0.09655529  0.74005031  0.04228974     0.37980
C3802       C  0.05306737  0.78814327  0.97226669     0.37970
C3803       C  0.10045355  0.78942917  0.97613787     0.36390
C3804       C  0.05009938  0.73385441  0.03537060     0.36390
N3805       N  0.11093178  0.79978063  0.96361976    -0.38430
N3806       N  0.04044949  0.72172947  0.04692866    -0.38430
N3807       N  0.04495031  0.79899699  0.95847635    -0.37870
N3808       N  0.10493843  0.73091428  0.05713381    -0.37880
C3809       C  0.96224663  0.89542233  0.08297768    -0.04540
C3810       C  0.97904152  0.88066608  0.07481314    -0.01660
C3811       C  0.97557243  0.85731057  0.07500754     0.03330
C3812       C  0.95534878  0.84838428  0.08315230    -0.04540
C3813       C  0.93805718  0.86293431  0.08983583    -0.01650
C3814       C  0.94143902  0.88619315  0.09000994     0.03330
C3815       C  0.00030814  0.88913613  0.06680398     0.37980
C3816       C  0.91670398  0.85380275  0.09699576     0.37970
C3817       C  0.92309508  0.90029610  0.09745078     0.36390
C3818       C  0.99324876  0.84237564  0.06767410     0.36390
N3819       N  0.90844680  0.91137703  0.10356544    -0.38430
N3820       N  0.00728088  0.83044290  0.06174072    -0.38430
N3821       N  0.89976535  0.84651090  0.10281623    -0.37870
N3822       N  0.01727702  0.89574203  0.06028037    -0.37880
C3823       C  0.95058323  0.79196531  0.14283516    -0.04540
C3824       C  0.93333410  0.77909746  0.15243773    -0.01660
C3825       C  0.93088666  0.77794396  0.17592904     0.03330
C3826       C  0.94472563  0.79106161  0.19019834    -0.04540
C3827       C  0.96159235  0.80453385  0.18013342    -0.01650
C3828       C  0.96543320  0.80359007  0.15699000     0.03330
C3829       C  0.91764593  0.76744839  0.13813815     0.37980
C3830       C  0.97480328  0.82025135  0.19306602     0.37970
C3831       C  0.98493517  0.81473500  0.14768426     0.36390
C3832       C  0.91404016  0.76305117  0.18498547     0.36390
N3833       N  0.00043714  0.82362959  0.14030393    -0.38430
N3834       N  0.90064085  0.75101625  0.19201851    -0.38430
N3835       N  0.98527473  0.83294646  0.20318721    -0.37870
N3836       N  0.90515420  0.75817600  0.12669441    -0.37880
C3837       C  0.93411672  0.64338151  0.82913076    -0.04540
C3838       C  0.95546999  0.63561845  0.83615609    -0.01660
C3839       C  0.95977965  0.61257027  0.83785483     0.03330
C3840       C  0.94252467  0.59697925  0.83443271    -0.04540
C3841       C  0.92156161  0.60433706  0.82659812    -0.01650
C3842       C  0.91738038  0.62742489  0.82372189     0.03330
C3843       C  0.97353929  0.65107567  0.84097195     0.37980
C3844       C  0.90447747  0.58808411  0.82107819     0.37970
C3845       C  0.89572139  0.63455385  0.81540433     0.36390
C3846       C  0.98248319  0.60471928  0.84149765     0.36390
N3847       N  0.87850088  0.64016869  0.80855977    -0.38430
N3848       N  0.00066076  0.59846981  0.84383481    -0.38430
N3849       N  0.89098550  0.57506666  0.81640543    -0.37870
N3850       N  0.98797383  0.66326734  0.84504411    -0.37880
C3851       C  0.98785520  0.73089413  0.90146820    -0.04540
C3852       C  0.99212127  0.75285379  0.90928859    -0.01660
C3853       C  0.99401919  0.75707492  0.93232368     0.03330
C3854       C  0.99309710  0.73937527  0.94780814    -0.04540
C3855       C  0.98861504  0.71753259  0.94027428    -0.01650
C3856       C  0.98570328  0.71331283  0.91721676     0.03330
C3857       C  0.99401546  0.77148543  0.89385347     0.37980
C3858       C  0.98713847  0.69941007  0.95628698     0.37970
C3859       C  0.98107796  0.69074925  0.90976640     0.36390
C3860       C  0.99583289  0.77990780  0.94024754     0.36390
N3861       N  0.97729776  0.67274706  0.90386569    -0.38430
N3862       N  0.99676766  0.79816001  0.94649957    -0.38430
N3863       N  0.98590749  0.68500322  0.96912379    -0.37870
N3864       N  0.99580706  0.78644443  0.88173109    -0.37880
C3865       C  0.96238164  0.90221975  0.75430401    -0.04540
C3866       C  0.98256509  0.89542777  0.76450356    -0.01660
C3867       C  0.98756538  0.87246251  0.76712692     0.03330
C3868       C  0.97235439  0.85586886  0.75954406    -0.04540
C3869       C  0.95208354  0.86295118  0.74920235    -0.01650
C3870       C  0.94712321  0.88585744  0.74689724     0.03330
C3871       C  0.99845427  0.91211531  0.77201868     0.37980
C3872       C  0.93560672  0.84695415  0.74134982     0.37970
C3873       C  0.92576331  0.89255541  0.73740010     0.36390
C3874       C  0.00866683  0.86618952  0.77735849     0.36390
N3875       N  0.90872753  0.89767618  0.72977697    -0.38430
N3876       N  0.02547950  0.86130977  0.78562614    -0.38430
N3877       N  0.92238910  0.83439956  0.73493351    -0.37870
N3878       N  0.01104331  0.92543687  0.77812814    -0.37880
C3879       C  0.91510297  0.09660044  0.80547812    -0.04540
C3880       C  0.91398696  0.10541037  0.82729067    -0.01660
C3881       C  0.91632055  0.12862164  0.83083298     0.03330
C3882       C  0.91941336  0.14320111  0.81250584    -0.04540
C3883       C  0.92043118  0.13423827  0.79064336    -0.01650
C3884       C  0.91853156  0.11103733  0.78722727     0.03330
C3885       C  0.90976355  0.09060772  0.84599595     0.37980
C3886       C  0.92366792  0.14866980  0.77146085     0.37970
C3887       C  0.91992244  0.10191545  0.76481753     0.36390
C3888       C  0.91452820  0.13760471  0.85323555     0.36390
N3889       N  0.92108098  0.09459411  0.74698572    -0.38430
N3890       N  0.91301271  0.14481997  0.87108531    -0.38430
N3891       N  0.92602423  0.15971545  0.75578121    -0.37870
N3892       N  0.90634105  0.07875294  0.86087638    -0.37880
C3893       C  0.99931161  0.00892960  0.89322674    -0.04540
C3894       C  0.98323474  0.02375868  0.90241119    -0.01660
C3895       C  0.98141478  0.02629548  0.92587976     0.03330
C3896       C  0.99731575  0.01611569  0.94028525    -0.04540
C3897       C  0.01496035  0.00375912  0.93072310    -0.01650
C3898       C  0.01445625  0.99810501  0.90802597     0.03330
C3899       C  0.96866428  0.03667586  0.88794152     0.37980
C3900       C  0.03435546  0.99760539  0.94399443     0.37970
C3901       C  0.02897157  0.98012035  0.90056601     0.36390
C3902       C  0.96281156  0.03893944  0.93496041     0.36390
N3903       N  0.04068654  0.96573351  0.89509711    -0.38430
N3904       N  0.94788318  0.04894686  0.94214264    -0.38430
N3905       N  0.05006519  0.99323823  0.95440695    -0.37870
N3906       N  0.95698916  0.04702390  0.87647911    -0.37880
C3907       C  0.72122695  0.10690053  0.82947336    -0.04540
C3908       C  0.70281784  0.11798552  0.81957508    -0.01660
C3909       C  0.69951741  0.14101803  0.82302084     0.03330
C3910       C  0.71470583  0.15322564  0.83620008    -0.04540
C3911       C  0.73329608  0.14221951  0.84588837    -0.01650
C3912       C  0.73649499  0.11907719  0.84258269     0.03330
C3913       C  0.68704961  0.10583179  0.80581222     0.37980
C3914       C  0.74914648  0.15475142  0.85922721     0.37970
C3915       C  0.75523180  0.10772216  0.85298202     0.36390
C3916       C  0.67998495  0.15201329  0.81364109     0.36390
N3917       N  0.77014080  0.09870147  0.86141447    -0.38430
N3918       N  0.66441701  0.16080204  0.80620634    -0.38430
N3919       N  0.76176264  0.16478154  0.86987574    -0.37870
N3920       N  0.67410406  0.09680269  0.79468449    -0.37880
C3921       C  0.80955662  0.03691753  0.77690069    -0.04540
C3922       C  0.81655872  0.04756691  0.79695484    -0.01660
C3923       C  0.83947261  0.04990144  0.80190088     0.03330
C3924       C  0.85589542  0.04219552  0.78680569    -0.04540
C3925       C  0.84917397  0.03187380  0.76673747    -0.01650
C3926       C  0.82621067  0.02926293  0.76175414     0.03330
C3927       C  0.80045827  0.05566011  0.81321776     0.37980
C3928       C  0.86593013  0.02419729  0.75096053     0.37970
C3929       C  0.81999085  0.01895204  0.74073861     0.36390
C3930       C  0.84615449  0.05974850  0.82305621     0.36390
N3931       N  0.81513664  0.01062409  0.72400272    -0.38430
N3932       N  0.85146412  0.06767781  0.83984589    -0.38430
N3933       N  0.87930451  0.01795687  0.73846317    -0.37870
N3934       N  0.78776490  0.06223459  0.82623850    -0.37880
C3935       C  0.66266826  0.00820301  0.94842844    -0.04540
C3936       C  0.67352596  0.02801216  0.94166841    -0.01660
C3937       C  0.67627031  0.03302306  0.91871129     0.03330
C3938       C  0.66763562  0.01849238  0.90198212    -0.04540
C3939       C  0.65623585  0.99882830  0.90903664    -0.01650
C3940       C  0.65439327  0.99351631  0.93191981     0.03330
C3941       C  0.68139676  0.04366737  0.95838544     0.37980
C3942       C  0.64649581  0.98343546  0.89303089     0.37970
C3943       C  0.64432138  0.97239468  0.93840368     0.36390
C3944       C  0.68777137  0.05347806  0.91264755     0.36390
N3945       N  0.63620068  0.95558004  0.94337710    -0.38430
N3946       N  0.69710621  0.06974423  0.90796560    -0.38430
N3947       N  0.63850703  0.97111811  0.88048140    -0.37870
N3948       N  0.68767100  0.05610412  0.97175414    -0.37880
C3949       C  0.71706334  0.96036283  0.14352431    -0.04540
C3950       C  0.73874167  0.96509197  0.15140765    -0.01660
C3951       C  0.74257596  0.96795590  0.17452961     0.03330
C3952       C  0.72478106  0.96539542  0.18998604    -0.04540
C3953       C  0.70298319  0.96082585  0.18181176    -0.01650
C3954       C  0.69911791  0.95910524  0.15870527     0.03330
C3955       C  0.75708044  0.96686752  0.13568449     0.37980
C3956       C  0.68416653  0.95838394  0.19694776     0.37970
C3957       C  0.67640759  0.95697823  0.15038863     0.36390
C3958       C  0.76496712  0.97298376  0.18234129     0.36390
N3959       N  0.65827166  0.95568814  0.14377436    -0.38430
N3960       N  0.78281818  0.97710907  0.18854470    -0.38430
N3961       N  0.66908501  0.95613662  0.20884384    -0.37870
N3962       N  0.77166652  0.96830564  0.12307684    -0.37880
C3963       C  0.80146732  0.04171867  0.05170859    -0.04540
C3964       C  0.81124859  0.03200364  0.07079798    -0.01660
C3965       C  0.83483122  0.03117565  0.07314211     0.03330
C3966       C  0.84904254  0.04088285  0.05663312    -0.04540
C3967       C  0.83875703  0.05057784  0.03736391    -0.01650
C3968       C  0.81537440  0.05014673  0.03467535     0.03330
C3969       C  0.79696810  0.02338655  0.08838104     0.37980
C3970       C  0.85172591  0.06139914  0.01992110     0.37970
C3971       C  0.80547490  0.05849763  0.01407342     0.36390
C3972       C  0.84405876  0.02047250  0.09284816     0.36390
N3973       N  0.79757021  0.06519463  0.99774061    -0.38430
N3974       N  0.85123800  0.01177380  0.10856811    -0.38430
N3975       N  0.86180201  0.07023576  0.00598411    -0.37870
N3976       N  0.78552524  0.01653029  0.10236832    -0.37880
C3977       C  0.73857626  0.76551091  0.15159679    -0.04540
C3978       C  0.73487482  0.78232302  0.16784715    -0.01660
C3979       C  0.73623138  0.77715647  0.19081413     0.03330
C3980       C  0.74134465  0.75521923  0.19780815    -0.04540
C3981       C  0.74475332  0.73836610  0.18175952    -0.01650
C3982       C  0.74348544  0.74340576  0.15881835     0.03330
C3983       C  0.73045943  0.80519538  0.16108370     0.37980
C3984       C  0.74960873  0.71568530  0.18896379     0.37970
C3985       C  0.74681948  0.72545593  0.14286657     0.36390
C3986       C  0.73316985  0.79464002  0.20730163     0.36390
N3987       N  0.74965226  0.71104598  0.13031358    -0.38430
N3988       N  0.73070056  0.80852548  0.22049853    -0.38430
N3989       N  0.75351896  0.69764087  0.19473507    -0.37870
N3990       N  0.72691928  0.82344736  0.15573889    -0.37880
C3991       C  0.59823977  0.78596859  0.02833323    -0.04540
C3992       C  0.59079268  0.79109109  0.05027731    -0.01660
C3993       C  0.56775510  0.79291146  0.05496850     0.03330
C3994       C  0.55179325  0.78997202  0.03788551    -0.04540
C3995       C  0.55902854  0.78495610  0.01604153    -0.01650
C3996       C  0.58209343  0.78286230  0.01126817     0.03330
C3997       C  0.60661376  0.79400462  0.06844004     0.37980
C3998       C  0.54271165  0.78282156  0.99825552     0.37970
C3999       C  0.58909937  0.77824081  0.98855111     0.36390
C4000       C  0.56038612  0.79771675  0.07757321     0.36390
N4001       N  0.59463858  0.77452546  0.97041945    -0.38430
N4002       N  0.55449764  0.80159437  0.09555968    -0.38430
N4003       N  0.52963516  0.78122369  0.98411246    -0.37870
N4004       N  0.61907199  0.79651403  0.08300926    -0.37880
C4005       C  0.69537208  0.90195262  0.08873308    -0.04540
C4006       C  0.68274486  0.88891586  0.10414767    -0.01660
C4007       C  0.67935256  0.86588121  0.10043230     0.03330
C4008       C  0.68686867  0.85595838  0.08057519    -0.04540
C4009       C  0.69862542  0.86889817  0.06475302    -0.01650
C4010       C  0.70363802  0.89147339  0.06916945     0.03330
C4011       C  0.67274026  0.89888650  0.12379396     0.37980
C4012       C  0.70624300  0.85878570  0.04407887     0.37970
C4013       C  0.71835463  0.90336979  0.05400199     0.36390
C4014       C  0.66795469  0.85233104  0.11700227     0.36390
N4015       N  0.73008205  0.91278838  0.04185525    -0.38430
N4016       N  0.65903643  0.84146346  0.13026901    -0.38430
N4017       N  0.71224256  0.85092195  0.02748631    -0.37870
N4018       N  0.66464064  0.90613394  0.13975706    -0.37880
C4019       C  0.81035785  0.71321706  0.06306655    -0.04540
C4020       C  0.82624499  0.71615273  0.08039791    -0.01660
C4021       C  0.84938595  0.71420631  0.07592252     0.03330
C4022       C  0.85693959  0.70953794  0.05411253    -0.04540
C4023       C  0.84121754  0.70669300  0.03678843    -0.01650
C4024       C  0.81810797  0.70834882  0.04118845     0.03330
C4025       C  0.81886427  0.72043126  0.10306684     0.37980
C4026       C  0.84892049  0.70211012  0.01425187     0.37970
C4027       C  0.80250947  0.70555748  0.02282226     0.36390
C4028       C  0.86544350  0.71611280  0.09395913     0.36390
N4029       N  0.79021628  0.70315888  0.00809655    -0.38430
N4030       N  0.87828956  0.71749960  0.10833158    -0.38430
N4031       N  0.85510155  0.69841469  0.99632518    -0.37870
N4032       N  0.81299827  0.72386141  0.12115296    -0.37880
C4033       C  0.48944941  0.89370836  0.06453395    -0.04540
C4034       C  0.48222910  0.87724885  0.08011008    -0.01660
C4035       C  0.48470720  0.85424213  0.07532869     0.03330
C4036       C  0.49461645  0.84728480  0.05512367    -0.04540
C4037       C  0.50134574  0.86349231  0.03935889    -0.01650
C4038       C  0.49879712  0.88644320  0.04392732     0.03330
C4039       C  0.47239305  0.88368708  0.10130033     0.37980
C4040       C  0.51052093  0.85650059  0.01799446     0.37970
C4041       C  0.50498492  0.90231684  0.02665106     0.36390
C4042       C  0.47734380  0.83768878  0.09145310     0.36390
N4043       N  0.50985892  0.91487485  0.01278574    -0.38430
N4044       N  0.47130067  0.82448087  0.10421320    -0.38430
N4045       N  0.51793647  0.85090927  0.00105053    -0.37870
N4046       N  0.46439101  0.88869078  0.11816453    -0.37880
C4047       C  0.44085760  0.95999634  0.19912114    -0.04540
C4048       C  0.45903184  0.96631109  0.18557757    -0.01660
C4049       C  0.45620621  0.96859846  0.16236571     0.03330
C4050       C  0.43499881  0.96503634  0.15251085    -0.04540
C4051       C  0.41673003  0.95889974  0.16614076    -0.01650
C4052       C  0.41973641  0.95611292  0.18938036     0.03330
C4053       C  0.48085185  0.97004056  0.19556943     0.37980
C4054       C  0.39505611  0.95470810  0.15616390     0.37970
C4055       C  0.40121884  0.94902342  0.20328663     0.36390
C4056       C  0.47529151  0.97492226  0.14887094     0.36390
N4057       N  0.38648664  0.94330483  0.21442396    -0.38430
N4058       N  0.49101653  0.97985401  0.13878149    -0.38430
N4059       N  0.37775341  0.95126868  0.14824201    -0.37870
N4060       N  0.49819492  0.97302519  0.20359484    -0.37880
C4061       C  0.34668339  0.01640881  0.08112547    -0.04540
C4062       C  0.33024400  0.03283134  0.07621286    -0.01660
C4063       C  0.30728219  0.02799944  0.07895637     0.03330
C4064       C  0.30046696  0.00687876  0.08689471    -0.04540
C4065       C  0.31670324  0.99041793  0.09162535    -0.01650
C4066       C  0.33961066  0.99502836  0.08867704     0.03330
C4067       C  0.33678448  0.05497992  0.06885175     0.37980
C4068       C  0.30976013  0.96845590  0.09928379     0.37970
C4069       C  0.35565270  0.97720901  0.09267560     0.36390
C4070       C  0.29063676  0.04500817  0.07413277     0.36390
N4071       N  0.36834851  0.96294425  0.09588124    -0.38430
N4072       N  0.27731593  0.05849612  0.07019436    -0.38430
N4073       N  0.30422947  0.95099638  0.10546619    -0.37870
N4074       N  0.34191462  0.07265073  0.06292332    -0.37880
C4075       C  0.56072102  0.98285540  0.01234585    -0.04540
C4076       C  0.57471509  0.96497822  0.00588343    -0.01660
C4077       C  0.59791585  0.96842765  0.00323489     0.03330
C4078       C  0.60720601  0.98974476  0.00699783    -0.04540
C4079       C  0.59335543  0.00752484  0.01367482    -0.01650
C4080       C  0.57019543  0.00416655  0.01624394     0.03330
C4081       C  0.56516789  0.94330420  0.00095637     0.37980
C4082       C  0.60300500  0.02939966  0.01768250     0.37970
C4083       C  0.55638125  0.02281919  0.02314593     0.36390
C4084       C  0.61227401  0.95009919  0.99648169     0.36390
N4085       N  0.54609389  0.03825124  0.02858697    -0.38430
N4086       N  0.62375812  0.93545947  0.99118929    -0.38430
N4087       N  0.61074184  0.04680106  0.02091784    -0.37870
N4088       N  0.55773549  0.92598034  0.99676531    -0.37880
C4089       C  0.49050180  0.01248666  0.43894552    -0.04540
C4090       C  0.47864994  0.99632508  0.42651267    -0.01660
C4091       C  0.48093991  0.99531799  0.40310337     0.03330
C4092       C  0.49497908  0.01061335  0.39188701    -0.04540
C4093       C  0.50573616  0.02764256  0.40428077    -0.01650
C4094       C  0.50361774  0.02846315  0.42774988     0.03330
C4095       C  0.46409783  0.98058898  0.43784193     0.37980
C4096       C  0.51898646  0.04441701  0.39294829     0.37970
C4097       C  0.51566461  0.04515245  0.44048946     0.36390
C4098       C  0.46956506  0.97789240  0.39071998     0.36390
N4099       N  0.52533570  0.05838444  0.45070417    -0.38430
N4100       N  0.46044478  0.96403869  0.38082863    -0.38430
N4101       N  0.52949947  0.05807457  0.38422327    -0.37870
N4102       N  0.45241913  0.96802577  0.44675077    -0.37880
C4103       C  0.46486343  0.89470960  0.58343728    -0.04540
C4104       C  0.48408651  0.88093099  0.58441467    -0.01660
C4105       C  0.48178484  0.85745412  0.58489584     0.03330
C4106       C  0.46034515  0.84767025  0.58441007    -0.04540
C4107       C  0.44126343  0.86126125  0.58217472    -0.01650
C4108       C  0.44345868  0.88464865  0.58145944     0.03330
C4109       C  0.50616275  0.89079697  0.58589304     0.37980
C4110       C  0.41925150  0.85109551  0.58122630     0.37970
C4111       C  0.42355658  0.89823332  0.57824728     0.36390
C4112       C  0.50141245  0.84328660  0.58660334     0.36390
N4113       N  0.40768313  0.90902890  0.57568475    -0.38430
N4114       N  0.51703039  0.83191652  0.58789212    -0.38430
N4115       N  0.40172663  0.84295744  0.58050830    -0.37870
N4116       N  0.52379926  0.89864084  0.58705070    -0.37880
C4117       C  0.44232481  0.10519394  0.50816097    -0.04540
C4118       C  0.42305150  0.11898479  0.50812259    -0.01660
C4119       C  0.42530816  0.14247888  0.50756392     0.03330
C4120       C  0.44673914  0.15224637  0.50728505    -0.04540
C4121       C  0.46589545  0.13862797  0.50880479    -0.01650
C4122       C  0.46377343  0.11524101  0.50922800     0.03330
C4123       C  0.40092304  0.10911351  0.50784303     0.37980
C4124       C  0.48791102  0.14880139  0.50965704     0.37970
C4125       C  0.48382009  0.10164276  0.51126873     0.36390
C4126       C  0.40564185  0.15666037  0.50676599     0.36390
N4127       N  0.49981659  0.09084347  0.51286070    -0.38430
N4128       N  0.38997730  0.16802610  0.50621430    -0.38430
N4129       N  0.50542968  0.15694518  0.51042852    -0.37870
N4130       N  0.38325608  0.10124968  0.50769805    -0.37880
C4131       C  0.34865535  0.03876021  0.55804017    -0.04540
C4132       C  0.33874917  0.04138951  0.53658966    -0.01660
C4133       C  0.31534407  0.04209762  0.53423713     0.03330
C4134       C  0.30142022  0.03979104  0.55304492    -0.04540
C4135       C  0.31097844  0.03593832  0.57421603    -0.01650
C4136       C  0.33450351  0.03543691  0.57677643     0.03330
C4137       C  0.35240328  0.04287103  0.51657881     0.37980
C4138       C  0.29653262  0.03326451  0.59347894     0.37970
C4139       C  0.34393869  0.03225471  0.59885911     0.36390
C4140       C  0.30544999  0.04559254  0.51234145     0.36390
N4141       N  0.35140588  0.02964528  0.61649931    -0.38430
N4142       N  0.29753644  0.04845510  0.49493903    -0.38430
N4143       N  0.28495728  0.03110190  0.60880656    -0.37870
N4144       N  0.36319190  0.04410004  0.50058395    -0.37880
C4145       C  0.60564780  0.95772060  0.53478051    -0.04540
C4146       C  0.59366811  0.94354843  0.52002778    -0.01660
C4147       C  0.57013490  0.94513085  0.51835380     0.03330
C4148       C  0.55848730  0.96141387  0.53067936    -0.04540
C4149       C  0.57055592  0.97664681  0.54406329    -0.01650
C4150       C  0.59394033  0.97463439  0.54636898     0.03330
C4151       C  0.60551311  0.92710310  0.50673387     0.37980
C4152       C  0.55898018  0.99422591  0.55606826     0.37970
C4153       C  0.60564024  0.98924470  0.56175694     0.36390
C4154       C  0.55779719  0.92945880  0.50465462     0.36390
N4155       N  0.61492413  0.00095157  0.57399444    -0.38430
N4156       N  0.54791586  0.91687599  0.49383922    -0.38430
N4157       N  0.55046864  0.00853808  0.56587634    -0.37870
N4158       N  0.61496748  0.91393201  0.49620207    -0.37880
C4159       C  0.68366098  0.03367691  0.40232526    -0.04540
C4160       C  0.67353758  0.05199479  0.41303271    -0.01660
C4161       C  0.67654187  0.05522618  0.43622235     0.03330
C4162       C  0.69101609  0.04099006  0.44860394    -0.04540
C4163       C  0.70127853  0.02272433  0.43760804    -0.01650
C4164       C  0.69699406  0.01870564  0.41483219     0.03330
C4165       C  0.65994103  0.06742443  0.40017466     0.37980
C4166       C  0.71718344  0.00855263  0.44928542     0.37970
C4167       C  0.70685136  0.99927660  0.40416771     0.36390
C4168       C  0.66436762  0.07300396  0.44732733     0.36390
N4169       N  0.71469331  0.98359967  0.39601759    -0.38430
N4170       N  0.65467835  0.08721226  0.45616942    -0.38430
N4171       N  0.72984883  0.99720925  0.45854731    -0.37870
N4172       N  0.64920441  0.07979369  0.38986086    -0.37880
C4173       C  0.71751670  0.09631962  0.50518743    -0.04540
C4174       C  0.73326888  0.10822568  0.49202731    -0.01660
C4175       C  0.73647026  0.13141094  0.49522473     0.03330
C4176       C  0.72494250  0.14266071  0.51234931    -0.04540
C4177       C  0.71021232  0.13060742  0.52631377    -0.01650
C4178       C  0.70606583  0.10775376  0.52241931     0.03330
C4179       C  0.74647191  0.09660581  0.47536439     0.37980
C4180       C  0.69889585  0.14174343  0.54462224     0.37970
C4181       C  0.68916509  0.09639422  0.53559969     0.36390
C4182       C  0.75157847  0.14374672  0.48087156     0.36390
N4183       N  0.67570189  0.08737645  0.54614682    -0.38430
N4184       N  0.76354100  0.15364209  0.46935539    -0.38430
N4185       N  0.68976971  0.15013314  0.55944299    -0.37870
N4186       N  0.75699012  0.08733406  0.46205764    -0.37880
C4187       C  0.74252736  0.99247676  0.64309544    -0.04540
C4188       C  0.74495786  0.00959725  0.65904516    -0.01660
C4189       C  0.74322176  0.00479314  0.68202807     0.03330
C4190       C  0.73874749  0.98267123  0.68943436    -0.04540
C4191       C  0.73610504  0.96556902  0.67330491    -0.01650
C4192       C  0.73799897  0.97047679  0.65028436     0.03330
C4193       C  0.74913170  0.03235271  0.65170744     0.37980
C4194       C  0.73227416  0.94268745  0.68030269     0.37970
C4195       C  0.73602868  0.95270193  0.63396550     0.36390
C4196       C  0.74560676  0.02300752  0.69783200     0.36390
N4197       N  0.73444293  0.93857204  0.62090098    -0.38430
N4198       N  0.74771228  0.03765797  0.71023742    -0.38430
N4199       N  0.72923564  0.92441757  0.68584722    -0.37870
N4200       N  0.75249199  0.05046040  0.64583035    -0.37880
C4201       C  0.06014960  0.98274359  0.50896954    -0.04540
C4202       C  0.06883320  0.00476807  0.50907198    -0.01660
C4203       C  0.09206515  0.00838139  0.50762089     0.03330
C4204       C  0.10683501  0.99016042  0.50553791    -0.04540
C4205       C  0.09831260  0.96820916  0.50507651    -0.01650
C4206       C  0.07506106  0.96447584  0.50698973     0.03330
C4207       C  0.05408659  0.02393434  0.51092497     0.37980
C4208       C  0.11348090  0.94953824  0.50197976     0.37970
C4209       C  0.06642131  0.94188266  0.50594399     0.36390
C4210       C  0.10088767  0.03096702  0.50807243     0.36390
N4211       N  0.05950334  0.92386639  0.50502259    -0.38430
N4212       N  0.10798752  0.04893181  0.50846510    -0.38430
N4213       N  0.12564082  0.93470201  0.49942762    -0.37870
N4214       N  0.04274762  0.03956240  0.51213623    -0.37880
C4215       C  0.84755521  0.01880664  0.58188360    -0.04540
C4216       C  0.84015055  0.00100337  0.59578409    -0.01660
C4217       C  0.81729682  0.99537607  0.59707645     0.03330
C4218       C  0.80087506  0.00887003  0.58667051    -0.04540
C4219       C  0.80787171  0.02713751  0.57348094    -0.01650
C4220       C  0.83092923  0.03173762  0.57057697     0.03330
C4221       C  0.85574239  0.98827446  0.60926280     0.37980
C4222       C  0.79134182  0.04162742  0.56312781     0.37970
C4223       C  0.83706640  0.05005103  0.55590882     0.36390
C4224       C  0.81078262  0.97511666  0.60881768     0.36390
N4225       N  0.84176304  0.06455917  0.54401706    -0.38430
N4226       N  0.80562540  0.95902384  0.61821235    -0.38430
N4227       N  0.77820648  0.05314023  0.55476969    -0.37870
N4228       N  0.86813544  0.97830999  0.62025099    -0.37880
C4229       C  0.91793734  0.10618700  0.52578845    -0.04540
C4230       C  0.91187632  0.11962815  0.50733064    -0.01660
C4231       C  0.90939534  0.14297105  0.50991532     0.03330
C4232       C  0.91353904  0.15302552  0.53079375    -0.04540
C4233       C  0.91974262  0.13965888  0.54916802    -0.01650
C4234       C  0.92169317  0.11634674  0.54677278     0.03330
C4235       C  0.90744523  0.10933989  0.48589129     0.37980
C4236       C  0.92369790  0.14994218  0.57076506     0.37970
C4237       C  0.92790335  0.10305237  0.56605008     0.36390
C4238       C  0.90233993  0.15666260  0.49121548     0.36390
N4239       N  0.93273487  0.09305522  0.58187045    -0.38430
N4240       N  0.89664801  0.16762862  0.47633467    -0.38430
N4241       N  0.92686004  0.15819204  0.58793461    -0.37870
N4242       N  0.90384596  0.10109307  0.46880726    -0.37880
C4243       C  0.97076973  0.03433535  0.43818608    -0.04540
C4244       C  0.95295183  0.02361371  0.42700937    -0.01660
C4245       C  0.94966678  0.02696008  0.40395429     0.03330
C4246       C  0.96428582  0.04090124  0.39183520    -0.04540
C4247       C  0.98237556  0.05131418  0.40295688    -0.01650
C4248       C  0.98555314  0.04806869  0.42609188     0.03330
C4249       C  0.93783712  0.00906345  0.43911328     0.37980
C4250       C  0.99775308  0.06534638  0.39055693     0.37970
C4251       C  0.00381165  0.05909531  0.43755136     0.36390
C4252       C  0.93071952  0.01666234  0.39286645     0.36390
N4253       N  0.01833319  0.06793045  0.44674142    -0.38430
N4254       N  0.91562779  0.00846039  0.38400692    -0.38430
N4255       N  0.00995242  0.07657595  0.38062059    -0.37870
N4256       N  0.92548802  0.99730219  0.44820121    -0.37880
C4257       C  0.93796979  0.96555046  0.65265538    -0.04540
C4258       C  0.92030767  0.95790642  0.66628816    -0.01660
C4259       C  0.92317716  0.95633117  0.68963668     0.03330
C4260       C  0.94403357  0.96136241  0.69942040    -0.04540
C4261       C  0.96182690  0.96858368  0.68583895    -0.01650
C4262       C  0.95881279  0.97078624  0.66257917     0.03330
C4263       C  0.89984371  0.94981206  0.65624560     0.37980
C4264       C  0.98340757  0.97335554  0.69584027     0.37970
C4265       C  0.97740409  0.97830397  0.64902427     0.36390
C4266       C  0.90468390  0.94937578  0.70365999     0.36390
N4267       N  0.99270188  0.98421535  0.63880502    -0.38430
N4268       N  0.88984429  0.94406319  0.71485426    -0.38430
N4269       N  0.00059494  0.97713766  0.70385816    -0.37870
N4270       N  0.88362681  0.94258356  0.64861906    -0.37880
C4271       C  0.95358131  0.71234522  0.44833264    -0.04540
C4272       C  0.97446203  0.71862981  0.43935605    -0.01660
C4273       C  0.97792033  0.71851864  0.41601119     0.03330
C4274       C  0.96042970  0.71202910  0.40131000    -0.04540
C4275       C  0.93910248  0.70688222  0.41053832    -0.01650
C4276       C  0.93576484  0.70723990  0.43380744     0.03330
C4277       C  0.99276469  0.72430659  0.45421691     0.37980
C4278       C  0.92019412  0.70135020  0.39636406     0.37970
C4279       C  0.91389189  0.70195157  0.44296741     0.36390
C4280       C  0.99985404  0.72436111  0.40744763     0.36390
N4281       N  0.89652381  0.69762520  0.45029733    -0.38430
N4282       N  0.01735990  0.72913453  0.40073848    -0.38430
N4283       N  0.90508309  0.69678451  0.38519638    -0.37870
N4284       N  0.00730870  0.72893140  0.46608213    -0.37880
C4285       C  0.94770311  0.65216515  0.50408326    -0.04540
C4286       C  0.93276984  0.64266005  0.51977636    -0.01660
C4287       C  0.93025033  0.61911512  0.52117408     0.03330
C4288       C  0.94078687  0.60491450  0.50528279    -0.04540
C4289       C  0.95416378  0.61489565  0.48856017    -0.01650
C4290       C  0.95959173  0.63766425  0.48963515     0.03330
C4291       C  0.91967028  0.65695902  0.53428542     0.37980
C4292       C  0.96096851  0.60232000  0.46902495     0.37970
C4293       C  0.97786215  0.64597268  0.47594282     0.36390
C4294       C  0.91693403  0.60981253  0.53914936     0.36390
N4295       N  0.99243668  0.65255742  0.46507299    -0.38430
N4296       N  0.90635962  0.60249148  0.55358541    -0.38430
N4297       N  0.96577097  0.59256703  0.45307562    -0.37870
N4298       N  0.90922344  0.66836383  0.54588411    -0.37880
C4299       C  0.91227981  0.76087617  0.64271722    -0.04540
C4300       C  0.93144167  0.75210684  0.65354604    -0.01660
C4301       C  0.93559599  0.75712307  0.67613090     0.03330
C4302       C  0.91989457  0.76954527  0.68862590    -0.04540
C4303       C  0.90062420  0.77800622  0.67817377    -0.01650
C4304       C  0.89720161  0.77443651  0.65514256     0.03330
C4305       C  0.94641390  0.73692045  0.64196405     0.37980
C4306       C  0.88438791  0.79050502  0.69114926     0.37970
C4307       C  0.87825849  0.78512569  0.64440031     0.36390
C4308       C  0.95586911  0.74886374  0.68666404     0.36390
N4309       N  0.86297933  0.79375391  0.63623364    -0.38430
N4310       N  0.97219087  0.74233037  0.69476596    -0.38430
N4311       N  0.87138697  0.80034789  0.70154857    -0.37870
N4312       N  0.95839688  0.72482013  0.63279073    -0.37880
C4313       C  0.99421942  0.84745107  0.55648230    -0.04540
C4314       C  0.99672554  0.85656819  0.57804909    -0.01660
C4315       C  0.99442190  0.87982160  0.58141593     0.03330
C4316       C  0.99013821  0.89412890  0.56310855    -0.04540
C4317       C  0.98807408  0.88488166  0.54144149    -0.01650
C4318       C  0.98980934  0.86163995  0.53824590     0.03330
C4319       C  0.00218166  0.84202292  0.59664810     0.37980
C4320       C  0.98398595  0.89905287  0.52222242     0.37970
C4321       C  0.98740275  0.85223795  0.51603467     0.36390
C4322       C  0.99743016  0.88912742  0.60354668     0.36390
N4323       N  0.98544972  0.84467569  0.49837550    -0.38430
N4324       N  0.99992055  0.89659159  0.62118075    -0.38430
N4325       N  0.98096887  0.90982581  0.50646119    -0.37870
N4326       N  0.00661988  0.83038077  0.61144087    -0.37880
C4327       C  0.68627824  0.21449016  0.93925593    -0.04540
C4328       C  0.70798999  0.21708057  0.93013831    -0.01660
C4329       C  0.71152276  0.21489944  0.90699552     0.03330
C4330       C  0.69359656  0.20952070  0.89277940    -0.04540
C4331       C  0.67200137  0.20646243  0.90177149    -0.01650
C4332       C  0.66828308  0.20918600  0.92492231     0.03330
C4333       C  0.72694611  0.22209890  0.94432975     0.37980
C4334       C  0.65374692  0.20006040  0.88720165     0.37970
C4335       C  0.64616392  0.20550776  0.93409257     0.36390
C4336       C  0.73377727  0.21786088  0.89773887     0.36390
N4337       N  0.62849320  0.20240498  0.94131621    -0.38430
N4338       N  0.75147386  0.22025078  0.89030221    -0.38430
N4339       N  0.63924675  0.19486889  0.87552455    -0.37870
N4340       N  0.74261544  0.22586764  0.95498599    -0.37880
C4341       C  0.74179600  0.09684278  0.03869424    -0.04540
C4342       C  0.73794217  0.10410758  0.01660626    -0.01660
C4343       C  0.73608736  0.12714760  0.01176108     0.03330
C4344       C  0.73835447  0.14319018  0.02899123    -0.04540
C4345       C  0.74227013  0.13571101  0.05117887    -0.01650
C4346       C  0.74379639  0.11270177  0.05593964     0.03330
C4347       C  0.73692599  0.08786421  0.99868732     0.37980
C4348       C  0.74441974  0.15147364  0.06945384     0.37970
C4349       C  0.74759342  0.10523704  0.07871830     0.36390
C4350       C  0.73277030  0.13426655  0.98883855     0.36390
N4351       N  0.75066088  0.09925624  0.09684250    -0.38430
N4352       N  0.73012933  0.13991141  0.97054031    -0.38430
N4353       N  0.74637393  0.16382793  0.08416603    -0.37870
N4354       N  0.73624763  0.07486128  0.98443157    -0.37880
C4355       C  0.85587231  0.24017092  0.08833205    -0.04540
C4356       C  0.84488571  0.24926783  0.06943154    -0.01660
C4357       C  0.82229303  0.24409546  0.06516388     0.03330
C4358       C  0.80990212  0.23116451  0.08052351    -0.04540
C4359       C  0.82042539  0.22261650  0.09968272    -0.01650
C4360       C  0.84346146  0.22636028  0.10321071     0.03330
C4361       C  0.85632768  0.26490531  0.05484505     0.37980
C4362       C  0.80750319  0.20981544  0.11570829     0.37970
C4363       C  0.85417034  0.21554457  0.12207349     0.36390
C4364       C  0.81167077  0.25263792  0.04509124     0.36390
N4365       N  0.86221337  0.20683758  0.13735149    -0.38430
N4366       N  0.80353626  0.25943087  0.02891554    -0.38430
N4367       N  0.79714135  0.19974011  0.12854390    -0.37870
N4368       N  0.86539237  0.27737669  0.04318118    -0.37880
C4369       C  0.41170897  0.14570977  0.31123627    -0.04540
C4370       C  0.39530552  0.13606655  0.29716973    -0.01660
C4371       C  0.39584557  0.11314656  0.29226613     0.03330
C4372       C  0.40972528  0.09844560  0.30464284    -0.04540
C4373       C  0.42488466  0.10767076  0.32026153    -0.01650
C4374       C  0.42663439  0.13117399  0.32276024     0.03330
C4375       C  0.37704197  0.14938391  0.28822981     0.37980
C4376       C  0.43857885  0.09310699  0.33401074     0.37970
C4377       C  0.44416208  0.14008571  0.33690904     0.36390
C4378       C  0.38249743  0.10504446  0.27368966     0.36390
N4379       N  0.45825467  0.14708538  0.34813621    -0.38430
N4380       N  0.37181240  0.09893328  0.25880507    -0.38430
N4381       N  0.44954665  0.08152452  0.34497906    -0.37870
N4382       N  0.36226708  0.15983070  0.28135716    -0.37880
C4383       C  0.49341330  0.35540434  0.28117857    -0.04540
C4384       C  0.47809616  0.36760712  0.29438993    -0.01660
C4385       C  0.47987797  0.39100014  0.29613584     0.03330
C4386       C  0.49666776  0.40251203  0.28419334    -0.04540
C4387       C  0.51086384  0.39037518  0.26957841    -0.01650
C4388       C  0.50947761  0.36685862  0.26840910     0.03330
C4389       C  0.46064988  0.35619679  0.30674161     0.37980
C4390       C  0.52714261  0.40205531  0.25594214     0.37970
C4391       C  0.52510020  0.35435747  0.25474291     0.36390
C4392       C  0.46515977  0.40294164  0.31128785     0.36390
N4393       N  0.53763308  0.34434013  0.24394775    -0.38430
N4394       N  0.45336435  0.41242206  0.32332623    -0.38430
N4395       N  0.54017709  0.41138189  0.24513308    -0.37870
N4396       N  0.44643338  0.34784254  0.31682374    -0.37880
C4397       C  0.46699221  0.21260972  0.40266343    -0.04540
C4398       C  0.48164370  0.19820096  0.41412692    -0.01660
C4399       C  0.48033318  0.19633692  0.43758139     0.03330
C4400       C  0.46403308  0.20862398  0.44965166    -0.04540
C4401       C  0.45005494  0.22379761  0.43813526    -0.01650
C4402       C  0.45164288  0.22586613  0.41476054     0.03330
C4403       C  0.49739784  0.18462223  0.40167584     0.37980
C4404       C  0.43319566  0.23649394  0.45010606     0.37970
C4405       C  0.43715688  0.24150909  0.40314766     0.36390
C4406       C  0.49562721  0.18153373  0.44922834     0.36390
N4407       N  0.42549017  0.25410140  0.39420515    -0.38430
N4408       N  0.50784117  0.16963830  0.45839025    -0.38430
N4409       N  0.41978529  0.24666403  0.45964136    -0.37870
N4410       N  0.50987621  0.17372385  0.39169813    -0.37880
C4411       C  0.66564284  0.24359748  0.39391780    -0.04540
C4412       C  0.67723495  0.22417150  0.40064724    -0.01660
C4413       C  0.67887909  0.21830597  0.42344502     0.03330
C4414       C  0.67019258  0.23262882  0.44023127    -0.04540
C4415       C  0.65953136  0.25284333  0.43339081    -0.01650
C4416       C  0.65720989  0.25811059  0.41050569     0.03330
C4417       C  0.68823238  0.21030692  0.38428100     0.37980
C4418       C  0.65145418  0.26896622  0.44961360     0.37970
C4419       C  0.64679598  0.27910213  0.40401061     0.36390
C4420       C  0.68933956  0.19716508  0.42928123     0.36390
N4421       N  0.63845367  0.29577390  0.39880730    -0.38430
N4422       N  0.69772671  0.18030930  0.43377991    -0.38430
N4423       N  0.64499791  0.28196915  0.46237320    -0.37870
N4424       N  0.69796461  0.19932819  0.37177777    -0.37880
C4425       C  0.60747905  0.25741240  0.33654667    -0.04540
C4426       C  0.59398128  0.23818182  0.33602841    -0.01660
C4427       C  0.57053456  0.24016617  0.33495416     0.03330
C4428       C  0.56020189  0.26157559  0.33484247    -0.04540
C4429       C  0.57391864  0.28085617  0.33429859    -0.01650
C4430       C  0.59747453  0.27872323  0.33511001     0.03330
C4431       C  0.60433838  0.21623072  0.33685000     0.37980
C4432       C  0.56393551  0.30294158  0.33371599     0.37970
C4433       C  0.61148023  0.29847495  0.33513773     0.36390
C4434       C  0.55722600  0.21995124  0.33336316     0.36390
N4435       N  0.62271763  0.31419141  0.33509240    -0.38430
N4436       N  0.54666188  0.20381992  0.33210429    -0.38430
N4437       N  0.55600998  0.32058589  0.33320387    -0.37870
N4438       N  0.61263364  0.19876465  0.33754167    -0.37880
C4439       C  0.69330846  0.34979731  0.25510652    -0.04540
C4440       C  0.67139151  0.35734663  0.25939566    -0.01660
C4441       C  0.66711444  0.38039777  0.26221648     0.03330
C4442       C  0.68476444  0.39608020  0.26039446    -0.04540
C4443       C  0.70681064  0.38823812  0.25632620    -0.01650
C4444       C  0.71105084  0.36520416  0.25434093     0.03330
C4445       C  0.65329086  0.34133211  0.26098447     0.37980
C4446       C  0.72550788  0.40361890  0.25481245     0.37970
C4447       C  0.73392652  0.35718807  0.25271398     0.36390
C4448       C  0.64443925  0.38791050  0.26645779     0.36390
N4449       N  0.75220249  0.35085354  0.25192794    -0.38430
N4450       N  0.62634489  0.39386726  0.26990655    -0.38430
N4451       N  0.74054715  0.41567218  0.25333705    -0.37870
N4452       N  0.63891392  0.32849241  0.26238315    -0.37880
C4453       C  0.72231096  0.28426714  0.15225172    -0.04540
C4454       C  0.70806115  0.27035814  0.16489718    -0.01660
C4455       C  0.70384707  0.27505928  0.18758298     0.03330
C4456       C  0.71478694  0.29309788  0.19823951    -0.04540
C4457       C  0.72972949  0.30652041  0.18555786    -0.01650
C4458       C  0.73294797  0.30244633  0.16255814     0.03330
C4459       C  0.69722163  0.25138617  0.15444489     0.37980
C4460       C  0.74224374  0.32437408  0.19600848     0.37970
C4461       C  0.74725823  0.31694834  0.14942826     0.36390
C4462       C  0.68738789  0.26186209  0.19953999     0.36390
N4463       N  0.75856647  0.32857233  0.13890934    -0.38430
N4464       N  0.67425983  0.25131056  0.20903133    -0.38430
N4465       N  0.75245339  0.33877446  0.20381416    -0.37870
N4466       N  0.68853092  0.23612824  0.14641140    -0.37880
C4467       C  0.80023422  0.20761799  0.29104809    -0.04540
C4468       C  0.80971745  0.22093722  0.27399541    -0.01660
C4469       C  0.83324675  0.22239586  0.27159107     0.03330
C4470       C  0.84768207  0.20903045  0.28505126    -0.04540
C4471       C  0.83773411  0.19477793  0.30130205    -0.01650
C4472       C  0.81460856  0.19565530  0.30546722     0.03330
C4473       C  0.79532522  0.23294049  0.25856498     0.37980
C4474       C  0.85076509  0.17819752  0.31335332     0.37970
C4475       C  0.80568236  0.18444905  0.32509042     0.36390
C4476       C  0.84219376  0.23785618  0.25520514     0.36390
N4477       N  0.79862398  0.17555711  0.34073608    -0.38430
N4478       N  0.84915943  0.25032248  0.24216920    -0.38430
N4479       N  0.86093305  0.16471644  0.32280465    -0.37870
N4480       N  0.78387807  0.24257640  0.24628683    -0.37880
C4481       C  0.73790721  0.15290568  0.29740017    -0.04540
C4482       C  0.74795842  0.13604195  0.28430568    -0.01660
C4483       C  0.74632473  0.11333795  0.29052495     0.03330
C4484       C  0.73446047  0.10689662  0.31019348    -0.04540
C4485       C  0.72286757  0.12383564  0.32219379    -0.01650
C4486       C  0.72395399  0.14638625  0.31528220     0.03330
C4487       C  0.75935895  0.14202649  0.26371087     0.37980
C4488       C  0.70957596  0.11852004  0.34179466     0.37970
C4489       C  0.70934340  0.16248645  0.32578539     0.36390
C4490       C  0.75644296  0.09688617  0.27584284     0.36390
N4491       N  0.69663453  0.17491220  0.33332726    -0.38430
N4492       N  0.76444675  0.08397249  0.26389168    -0.38430
N4493       N  0.69885237  0.11448467  0.35736917    -0.37870
N4494       N  0.76851265  0.14679039  0.24736742    -0.37880
C4495       C  0.59805712  0.76630750  0.51156627    -0.04540
C4496       C  0.58149254  0.78298397  0.51462552    -0.01660
C4497       C  0.55857176  0.77763556  0.51254787     0.03330
C4498       C  0.55191815  0.75561624  0.50736931    -0.04540
C4499       C  0.56829511  0.73891630  0.50448665    -0.01650
C4500       C  0.59118879  0.74415510  0.50645136     0.03330
C4501       C  0.58792623  0.80589600  0.51911380     0.37980
C4502       C  0.56149650  0.71612875  0.49972697     0.37970
C4503       C  0.60745280  0.72632786  0.50366219     0.36390
C4504       C  0.54179876  0.79499970  0.51507173     0.36390
N4505       N  0.62022649  0.71198801  0.50123160    -0.38430
N4506       N  0.52837668  0.80879478  0.51712128    -0.38430
N4507       N  0.55605704  0.69798835  0.49591655    -0.37870
N4508       N  0.59301039  0.82419064  0.52267819    -0.37880
C4509       C  0.73931155  0.64354135  0.52688077    -0.04540
C4510       C  0.73849126  0.63431558  0.54865549    -0.01660
C4511       C  0.74074953  0.61114126  0.55182400     0.03330
C4512       C  0.74459579  0.59703755  0.53343819    -0.04540
C4513       C  0.74569257  0.60609486  0.51172445    -0.01650
C4514       C  0.74277579  0.62928685  0.50839699     0.03330
C4515       C  0.73511619  0.64842971  0.56802376     0.37980
C4516       C  0.75022112  0.59155888  0.49292026     0.37970
C4517       C  0.74426512  0.63857971  0.48608298     0.36390
C4518       C  0.73925579  0.60170631  0.57413371     0.36390
N4519       N  0.74551736  0.64602445  0.46828951    -0.38430
N4520       N  0.73796913  0.59413302  0.59186984    -0.38430
N4521       N  0.75388794  0.57992101  0.47794967    -0.37870
N4522       N  0.73270301  0.65916760  0.58388143    -0.37880
C4523       C  0.81034251  0.73008305  0.58159288    -0.04540
C4524       C  0.82536745  0.71175620  0.58173470    -0.01660
C4525       C  0.84860565  0.71537643  0.58418284     0.03330
C4526       C  0.85700380  0.73729510  0.58581358    -0.04540
C4527       C  0.84217679  0.75558739  0.58488043    -0.01650
C4528       C  0.81896031  0.75205487  0.58339417     0.03330
C4529       C  0.81691019  0.68912879  0.58011975     0.37980
C4530       C  0.85095266  0.77819414  0.58503645     0.37970
C4531       C  0.80415082  0.77129245  0.58334129     0.36390
C4532       C  0.86388698  0.69659046  0.58534832     0.36390
N4533       N  0.79262438  0.78683519  0.58361341    -0.38430
N4534       N  0.87610421  0.68161184  0.58632432    -0.38430
N4535       N  0.85797103  0.79619522  0.58490573    -0.37870
N4536       N  0.81016391  0.67107090  0.57881307    -0.37880
C4537       C  0.66973114  0.85623317  0.56535950    -0.04540
C4538       C  0.65624329  0.86835098  0.58037277    -0.01660
C4539       C  0.65290385  0.89152494  0.57722662     0.03330
C4540       C  0.66294063  0.90264772  0.55892142    -0.04540
C4541       C  0.67667609  0.89049624  0.54411166    -0.01650
C4542       C  0.68018756  0.86746068  0.54741150     0.03330
C4543       C  0.64557425  0.85688457  0.59883877     0.37980
C4544       C  0.68654907  0.90150554  0.52487910     0.37970
C4545       C  0.69467374  0.85547029  0.53214049     0.36390
C4546       C  0.63918283  0.90395283  0.59285008     0.36390
N4547       N  0.70643305  0.84663017  0.51960788    -0.38430
N4548       N  0.62821667  0.91389084  0.60528821    -0.38430
N4549       N  0.69441128  0.91029628  0.50956478    -0.37870
N4550       N  0.63702375  0.84769298  0.61353552    -0.37880
C4551       C  0.68563033  0.71666748  0.43974291    -0.04540
C4552       C  0.67731267  0.69752114  0.42903988    -0.01660
C4553       C  0.68089909  0.69448037  0.40595756     0.03330
C4554       C  0.69439439  0.70976145  0.39376355    -0.04540
C4555       C  0.70284409  0.72888379  0.40474063    -0.01650
C4556       C  0.69781975  0.73265964  0.42739614     0.03330
C4557       C  0.66501153  0.68100289  0.44180146     0.37980
C4558       C  0.71765473  0.74422572  0.39319452     0.37970
C4559       C  0.70583592  0.75283473  0.43815862     0.36390
C4560       C  0.67034423  0.67575608  0.39478637     0.36390
N4561       N  0.71216985  0.76907222  0.44647127    -0.38430
N4562       N  0.66198748  0.66078594  0.38589375    -0.38430
N4563       N  0.72944547  0.75650179  0.38402951    -0.37870
N4564       N  0.65533586  0.66776445  0.45203611    -0.37880
C4565       C  0.19387218  0.70645356  0.89442167    -0.04540
C4566       C  0.18067142  0.69136148  0.90720989    -0.01660
C4567       C  0.17913798  0.69365910  0.93060572     0.03330
C4568       C  0.18935468  0.71183453  0.94128810    -0.04540
C4569       C  0.20095647  0.72789943  0.92853171    -0.01650
C4570       C  0.20384187  0.72490249  0.90536959     0.03330
C4571       C  0.16860324  0.67328418  0.89659691     0.37980
C4572       C  0.21058279  0.74733958  0.93928918     0.37970
C4573       C  0.21831549  0.74016651  0.89330082     0.36390
C4574       C  0.16768347  0.67689420  0.94385201     0.36390
N4575       N  0.22983835  0.75241339  0.88376151    -0.38430
N4576       N  0.15873578  0.66344268  0.95446463    -0.38430
N4577       N  0.21830097  0.76309149  0.94735411    -0.37870
N4578       N  0.15886239  0.65860953  0.88869942    -0.37880
C4579       C  0.21467822  0.65175375  0.83579771    -0.04540
C4580       C  0.23646946  0.64368838  0.83191644    -0.01660
C4581       C  0.24031226  0.62051054  0.82949941     0.03330
C4582       C  0.22238621  0.60515563  0.83170501    -0.04540
C4583       C  0.20045351  0.61351598  0.83532891    -0.01650
C4584       C  0.19663262  0.63668455  0.83666841     0.03330
C4585       C  0.25496097  0.65926972  0.83075044     0.37980
C4586       C  0.18148380  0.59851156  0.83718520     0.37970
C4587       C  0.17392033  0.64517443  0.83820480     0.36390
C4588       C  0.26285067  0.61256856  0.82529416     0.36390
N4589       N  0.15579691  0.65193300  0.83903753    -0.38430
N4590       N  0.28082234  0.60627935  0.82179225    -0.38430
N4591       N  0.16626146  0.58672415  0.83892852    -0.37870
N4592       N  0.26969799  0.67173314  0.82984741    -0.37880
C4593       C  0.10633062  0.78877465  0.80599126    -0.04540
C4594       C  0.09238065  0.78304119  0.78801282    -0.01660
C4595       C  0.06923267  0.78048096  0.79138211     0.03330
C4596       C  0.05990043  0.78321153  0.81295104    -0.04540
C4597       C  0.07400019  0.78865187  0.83104386    -0.01650
C4598       C  0.09715820  0.79160725  0.82752156     0.03330
C4599       C  0.10193339  0.77997582  0.76593314     0.37980
C4600       C  0.06454334  0.79212003  0.85306116     0.37970
C4601       C  0.11153699  0.79799802  0.84592241     0.36390
C4602       C  0.05529939  0.77481570  0.77244104     0.36390
N4603       N  0.12304929  0.80313157  0.86056502    -0.38430
N4604       N  0.04493799  0.77045215  0.75674716    -0.38430
N4605       N  0.05695555  0.79497855  0.87059913    -0.37870
N4606       N  0.10960490  0.77749084  0.74837525    -0.37880
C4607       C  0.09868497  0.78917219  0.53522328    -0.04540
C4608       C  0.08695137  0.77730343  0.55196366    -0.01660
C4609       C  0.06343299  0.77829625  0.55300004     0.03330
C4610       C  0.05142503  0.79124801  0.53737754    -0.04540
C4611       C  0.06309116  0.80218561  0.51993337    -0.01650
C4612       C  0.08666944  0.80107371  0.51882543     0.03330
C4613       C  0.09905316  0.76408136  0.56833091     0.37980
C4614       C  0.05081103  0.81498328  0.50338901     0.37970
C4615       C  0.09861790  0.81300305  0.50146508     0.36390
C4616       C  0.05168633  0.76684848  0.57085470     0.36390
N4617       N  0.10818342  0.82256327  0.48765464    -0.38430
N4618       N  0.04230122  0.75768883  0.58505504    -0.38430
N4619       N  0.04099191  0.82524145  0.49024470    -0.37870
N4620       N  0.10846026  0.75349572  0.58151517    -0.37880
C4621       C  0.19133475  0.85474933  0.58947805    -0.04540
C4622       C  0.20500209  0.86504874  0.60571371    -0.01660
C4623       C  0.21034613  0.88779303  0.60402740     0.03330
C4624       C  0.19797839  0.90201982  0.58964999    -0.04540
C4625       C  0.18286481  0.89218424  0.57435671    -0.01650
C4626       C  0.18056894  0.86861997  0.57338562     0.03330
C4627       C  0.21219314  0.85288891  0.62539500     0.37980
C4628       C  0.16939894  0.90610724  0.55975007     0.37970
C4629       C  0.16734428  0.85897250  0.55553372     0.36390
C4630       C  0.22907228  0.89631338  0.61693741     0.36390
N4631       N  0.15689020  0.85137616  0.54116936    -0.38430
N4632       N  0.24400027  0.90306856  0.62719365    -0.38430
N4633       N  0.15865264  0.91713379  0.54801694    -0.37870
N4634       N  0.21729339  0.84353812  0.64151613    -0.37880
C4635       C  0.21384836  0.64551939  0.50627098    -0.04540
C4636       C  0.22621646  0.63107960  0.52067886    -0.01660
C4637       C  0.22307905  0.60762997  0.51985452     0.03330
C4638       C  0.20619155  0.59835213  0.50622352    -0.04540
C4639       C  0.19232516  0.61289628  0.49376679    -0.01650
C4640       C  0.19733348  0.63578150  0.49219555     0.03330
C4641       C  0.24210427  0.63995710  0.53667550     0.37980
C4642       C  0.17268459  0.60427135  0.48233850     0.37970
C4643       C  0.18575990  0.64875223  0.47520387     0.36390
C4644       C  0.23764065  0.59312193  0.53277016     0.36390
N4645       N  0.17661620  0.65890699  0.46149582    -0.38430
N4646       N  0.24923262  0.58160474  0.54315265    -0.38430
N4647       N  0.15709186  0.59742782  0.47318859    -0.37870
N4648       N  0.25467777  0.64687792  0.54961944    -0.37880
C4649       C  0.16515246  0.73966856  0.44171424    -0.04540
C4650       C  0.18188712  0.74989950  0.42864724    -0.01660
C4651       C  0.17902445  0.75231336  0.40537075     0.03330
C4652       C  0.15999163  0.74312724  0.39465859    -0.04540
C4653       C  0.14416703  0.73119858  0.40789152    -0.01650
C4654       C  0.14639527  0.73025584  0.43131722     0.03330
C4655       C  0.20196006  0.75845504  0.43919377     0.37980
C4656       C  0.12538589  0.71972836  0.39781339     0.37970
C4657       C  0.12910874  0.71996592  0.44488029     0.36390
C4658       C  0.19515559  0.76543222  0.39291042     0.36390
N4659       N  0.11527334  0.71193222  0.45573416    -0.38430
N4660       N  0.20811756  0.77587774  0.38307730    -0.38430
N4661       N  0.11002376  0.71050475  0.39060340    -0.37870
N4662       N  0.21818954  0.76523097  0.44720736    -0.37880
C4663       C  0.24256682  0.75785301  0.65249952    -0.04540
C4664       C  0.23935838  0.73649148  0.66230418    -0.01660
C4665       C  0.23874257  0.73410656  0.68571292     0.03330
C4666       C  0.24038441  0.75303204  0.69954593    -0.04540
C4667       C  0.24234949  0.77443578  0.68984461    -0.01650
C4668       C  0.24419288  0.77676935  0.66646222     0.03330
C4669       C  0.23678795  0.71679766  0.64842573     0.37980
C4670       C  0.24342913  0.79398297  0.70408233     0.37970
C4671       C  0.25013344  0.79822416  0.65699809     0.36390
C4672       C  0.23726814  0.71204697  0.69568633     0.36390
N4673       N  0.25560143  0.81515976  0.64947931    -0.38430
N4674       N  0.23622335  0.69446851  0.70367291    -0.38430
N4675       N  0.24410916  0.80954698  0.71549425    -0.37870
N4676       N  0.23482480  0.70107331  0.63738379    -0.37880
C4677       C  0.31015634  0.71176168  0.55626811    -0.04540
C4678       C  0.32366438  0.70523264  0.57445632    -0.01660
C4679       C  0.34715786  0.70484556  0.57215903     0.03330
C4680       C  0.35720175  0.71080761  0.55164785    -0.04540
C4681       C  0.34383810  0.71863178  0.53396052    -0.01650
C4682       C  0.32039195  0.71920377  0.53625278     0.03330
C4683       C  0.31339981  0.69795367  0.59514546     0.37980
C4684       C  0.35426117  0.72570181  0.51326333     0.37970
C4685       C  0.30684292  0.72779018  0.51804016     0.36390
C4686       C  0.36108060  0.69799097  0.59078329     0.36390
N4687       N  0.29608632  0.73468703  0.50351308    -0.38430
N4688       N  0.37224809  0.69262280  0.60563658    -0.38430
N4689       N  0.36262094  0.73141519  0.49680218    -0.37870
N4690       N  0.30519870  0.69208770  0.61163411    -0.37880
C4691       C  0.20274160  0.21092816  0.39400626    -0.04540
C4692       C  0.21619056  0.19795597  0.40851800    -0.01660
C4693       C  0.21029793  0.19554374  0.43104123     0.03330
C4694       C  0.19504935  0.21055377  0.44115512    -0.04540
C4695       C  0.18328166  0.22573413  0.42704973    -0.01650
C4696       C  0.18620228  0.22495375  0.40352411     0.03330
C4697       C  0.23603148  0.18657354  0.40026554     0.37980
C4698       C  0.16791237  0.24202577  0.43633641     0.37970
C4699       C  0.17179089  0.23825457  0.38926924     0.36390
C4700       C  0.21820423  0.17591353  0.44285062     0.36390
N4701       N  0.16028667  0.24892135  0.37793580    -0.38430
N4702       N  0.22383129  0.15978145  0.45189132    -0.38430
N4703       N  0.15568125  0.25512900  0.44362414    -0.37870
N4704       N  0.25181571  0.17747405  0.39373790    -0.37880
C4705       C  0.20487078  0.15184967  0.33637580    -0.04540
C4706       C  0.22137572  0.14263161  0.32210340    -0.01660
C4707       C  0.22470060  0.11917488  0.32126011     0.03330
C4708       C  0.21352292  0.10492028  0.33664803    -0.04540
C4709       C  0.19845313  0.11472400  0.35200246    -0.01650
C4710       C  0.19210011  0.13715480  0.34976879     0.03330
C4711       C  0.23537106  0.15709795  0.30861742     0.37980
C4712       C  0.19103129  0.10257134  0.37159403     0.37970
C4713       C  0.17236445  0.14505248  0.36155921     0.36390
C4714       C  0.23967281  0.11006440  0.30452442     0.36390
N4715       N  0.15665866  0.15131155  0.37096547    -0.38430
N4716       N  0.25155770  0.10290015  0.29105801    -0.38430
N4717       N  0.18576659  0.09320914  0.38764560    -0.37870
N4718       N  0.24657629  0.16856053  0.29780754    -0.37880
C4719       C  0.16505091  0.39509760  0.28561021    -0.04540
C4720       C  0.16180988  0.38485246  0.30684071    -0.01660
C4721       C  0.16127536  0.36141226  0.30888067     0.03330
C4722       C  0.16419470  0.34773948  0.28998286    -0.04540
C4723       C  0.16859708  0.35762095  0.26908376    -0.01650
C4724       C  0.16907961  0.38115638  0.26683442     0.03330
C4725       C  0.15944816  0.39814710  0.32697886     0.37980
C4726       C  0.17171547  0.34350078  0.24968189     0.37970
C4727       C  0.17306730  0.39076774  0.24495542     0.36390
C4728       C  0.15730895  0.35120489  0.33055072     0.36390
N4729       N  0.17636628  0.39833814  0.22747690    -0.38430
N4730       N  0.15405735  0.34302440  0.34775890    -0.38430
N4731       N  0.17418086  0.33222296  0.23420682    -0.37870
N4732       N  0.15749740  0.40863149  0.34308486    -0.37880
C4733       C  0.10614350  0.29051526  0.30067165    -0.04540
C4734       C  0.09672545  0.28639142  0.32184788    -0.01660
C4735       C  0.07321856  0.28586015  0.32456398     0.03330
C4736       C  0.05890270  0.28938177  0.30596304    -0.04540
C4737       C  0.06868276  0.29230143  0.28448147    -0.01650
C4738       C  0.09207921  0.29311606  0.28200027     0.03330
C4739       C  0.11129722  0.28353657  0.34099782     0.37980
C4740       C  0.05492720  0.29396159  0.26454775     0.37970
C4741       C  0.10182074  0.29702423  0.26011427     0.36390
C4742       C  0.06399368  0.28243680  0.34669454     0.36390
N4743       N  0.10963189  0.30024696  0.24273435    -0.38430
N4744       N  0.05672091  0.27964833  0.36438225    -0.38430
N4745       N  0.04406157  0.29531977  0.24860884    -0.37870
N4746       N  0.12296147  0.28125287  0.35624636    -0.37880
C4747       C  0.30200559  0.24424534  0.25997901    -0.04540
C4748       C  0.31537142  0.26206774  0.26734969    -0.01660
C4749       C  0.33882988  0.25988336  0.26755401     0.03330
C4750       C  0.34908824  0.23993275  0.25992675    -0.04540
C4751       C  0.33561571  0.22167925  0.25366078    -0.01650
C4752       C  0.31209615  0.22370710  0.25413010     0.03330
C4753       C  0.30491847  0.28287735  0.27409746     0.37980
C4754       C  0.34589413  0.20147362  0.24514098     0.37970
C4755       C  0.29818368  0.20483036  0.24812907     0.36390
C4756       C  0.35237000  0.27829042  0.27560382     0.36390
N4757       N  0.28704491  0.18974220  0.24349884    -0.38430
N4758       N  0.36307845  0.29302070  0.28204109    -0.38430
N4759       N  0.35408294  0.18548370  0.23799421    -0.37870
N4760       N  0.29650953  0.29943060  0.27950525    -0.37880
C4761       C  0.24609734  0.26367513  0.15107521    -0.04540
C4762       C  0.26377751  0.25124842  0.16058918    -0.01660
C4763       C  0.26370524  0.24604173  0.18344309     0.03330
C4764       C  0.24902928  0.25730871  0.19833254    -0.04540
C4765       C  0.23284859  0.27203230  0.18911917    -0.01650
C4766       C  0.23055324  0.27417376  0.16563446     0.03330
C4767       C  0.28295235  0.24478335  0.14718699     0.37980
C4768       C  0.21870362  0.28534214  0.20358749     0.37970
C4769       C  0.21189984  0.28690889  0.15674267     0.36390
C4770       C  0.27825441  0.22812718  0.19103478     0.36390
N4771       N  0.19693264  0.29700252  0.14973190    -0.38430
N4772       N  0.28999201  0.21376476  0.19655605    -0.38430
N4773       N  0.20737020  0.29598009  0.21508188    -0.37870
N4774       N  0.29852563  0.24018698  0.13668953    -0.37880
C4775       C  0.70962504  0.59641777  0.00797145    -0.04540
C4776       C  0.73191992  0.60376509  0.01051985    -0.01660
C4777       C  0.73670777  0.62677476  0.01252039     0.03330
C4778       C  0.71925533  0.64274609  0.01148890    -0.04540
C4779       C  0.69691150  0.63527828  0.00861408    -0.01650
C4780       C  0.69216761  0.61226013  0.00713391     0.03330
C4781       C  0.75009269  0.58769168  0.00987142     0.37980
C4782       C  0.67851257  0.65109134  0.00748054     0.37970
C4783       C  0.66920241  0.60479985  0.00466963     0.36390
C4784       C  0.75975786  0.63399752  0.01466500     0.36390
N4785       N  0.65091327  0.59884082  0.00265764    -0.38430
N4786       N  0.77814741  0.63974687  0.01636620    -0.38430
N4787       N  0.66368173  0.66348432  0.00632032    -0.37870
N4788       N  0.76455999  0.57485377  0.00915105    -0.37880
C4789       C  0.66346130  0.40148107  0.05496233    -0.04540
C4790       C  0.64909016  0.38993522  0.06992002    -0.01660
C4791       C  0.65184623  0.36679089  0.07364173     0.03330
C4792       C  0.66974753  0.35530561  0.06361603    -0.04540
C4793       C  0.68478198  0.36698467  0.04964258    -0.01650
C4794       C  0.68128872  0.38976126  0.04480382     0.03330
C4795       C  0.63166773  0.40187916  0.08184836     0.37980
C4796       C  0.70382811  0.35557748  0.03985529     0.37970
C4797       C  0.69556374  0.40077407  0.02857565     0.36390
C4798       C  0.63633697  0.35477512  0.08784847     0.36390
N4799       N  0.70696190  0.40953241  0.01564812    -0.38430
N4800       N  0.62390124  0.34514239  0.09908344    -0.38430
N4801       N  0.71927810  0.34702186  0.03195912    -0.37870
N4802       N  0.61775151  0.41141460  0.09131766    -0.37880
C4803       C  0.60848551  0.45932423  0.03323647    -0.04540
C4804       C  0.59653072  0.46901643  0.05107281    -0.01660
C4805       C  0.57303321  0.47019259  0.05031478     0.03330
C4806       C  0.56127797  0.46174812  0.03166159    -0.04540
C4807       C  0.57326788  0.45321105  0.01326296    -0.01650
C4808       C  0.59684205  0.45184512  0.01412667     0.03330
C4809       C  0.60835381  0.47681840  0.07073723     0.37980
C4810       C  0.56131318  0.44491430  0.99392524     0.37970
C4811       C  0.60915393  0.44227996  0.99560082     0.36390
C4812       C  0.56095350  0.48019235  0.06881823     0.36390
N4813       N  0.61901883  0.43463426  0.98084602    -0.38430
N4814       N  0.55137600  0.48815689  0.08359576    -0.38430
N4815       N  0.55173617  0.43828074  0.97851720    -0.37870
N4816       N  0.61781045  0.48303762  0.08639039    -0.37880
C4817       C  0.84811178  0.52038276  0.08342864    -0.04540
C4818       C  0.84087044  0.50531346  0.10023410    -0.01660
C4819       C  0.81833363  0.49872335  0.10152338     0.03330
C4820       C  0.80170962  0.51018346  0.08914238    -0.04540
C4821       C  0.80844484  0.52713893  0.07413820    -0.01650
C4822       C  0.83141883  0.53141635  0.07041772     0.03330
C4823       C  0.85610153  0.49746865  0.11735033     0.37980
C4824       C  0.79178605  0.54074748  0.06286958     0.37970
C4825       C  0.83737263  0.54743173  0.05320802     0.36390
C4826       C  0.81255641  0.47952688  0.11524147     0.36390
N4827       N  0.84193259  0.56011791  0.03934434    -0.38430
N4828       N  0.80800237  0.46423087  0.12615886    -0.38430
N4829       N  0.77851504  0.55163731  0.05392849    -0.37870
N4830       N  0.86819852  0.49185158  0.13133181    -0.37880
C4831       C  0.74198931  0.49314411  0.14381048    -0.04540
C4832       C  0.74150377  0.47104584  0.15205464    -0.01660
C4833       C  0.73898781  0.46703320  0.17515469     0.03330
C4834       C  0.73730038  0.48514019  0.19018796    -0.04540
C4835       C  0.73796480  0.50728967  0.18180248    -0.01650
C4836       C  0.74007453  0.51120891  0.15871216     0.03330
C4837       C  0.74448132  0.45247038  0.13681344     0.37980
C4838       C  0.73623943  0.52627312  0.19672539     0.37970
C4839       C  0.74039044  0.53392538  0.15018256     0.36390
C4840       C  0.73919753  0.44429115  0.18353942     0.36390
N4841       N  0.74062690  0.55200752  0.14333539    -0.38430
N4842       N  0.73944698  0.42615900  0.19025909    -0.38430
N4843       N  0.73511924  0.54172807  0.20824492    -0.37870
N4844       N  0.74694463  0.43770442  0.12460856    -0.37880
C4845       C  0.72053187  0.46610950  0.68940996    -0.04540
C4846       C  0.69882232  0.46919480  0.68040197    -0.01660
C4847       C  0.69514148  0.46706326  0.65728789     0.03330
C4848       C  0.71292751  0.46136262  0.64304325    -0.04540
C4849       C  0.73459418  0.45820093  0.65188940    -0.01650
C4850       C  0.73843327  0.46072543  0.67500873     0.03330
C4851       C  0.68005010  0.47476771  0.69463767     0.37980
C4852       C  0.75282051  0.45192007  0.63720580     0.37970
C4853       C  0.76057751  0.45683286  0.68411086     0.36390
C4854       C  0.67294563  0.47057724  0.64806177     0.36390
N4855       N  0.77820861  0.45362765  0.69142708    -0.38430
N4856       N  0.65529891  0.47344000  0.64064559    -0.38430
N4857       N  0.76733255  0.44688829  0.62545602    -0.37870
N4858       N  0.66448138  0.47904699  0.70526156    -0.37880
C4859       C  0.59742424  0.48336950  0.83059307    -0.04540
C4860       C  0.59003742  0.50471315  0.83797446    -0.01660
C4861       C  0.56703705  0.50927855  0.84023010     0.03330
C4862       C  0.55104962  0.49275192  0.83518095    -0.04540
C4863       C  0.55816979  0.47157198  0.82772967    -0.01650
C4864       C  0.58121412  0.46680268  0.82558403     0.03330
C4865       C  0.60584394  0.52249059  0.84271359     0.37980
C4866       C  0.54173620  0.45445878  0.82280119     0.37970
C4867       C  0.58806827  0.44454605  0.81883441     0.36390
C4868       C  0.55972312  0.53124890  0.84754575     0.36390
N4869       N  0.59347168  0.42678535  0.81342834    -0.38430
N4870       N  0.55385632  0.54870125  0.85344385    -0.38430
N4871       N  0.52858653  0.44088034  0.81879913    -0.37870
N4872       N  0.61832399  0.53672053  0.84661054    -0.37880
C4873       C  0.68444763  0.53505291  0.90230467    -0.04540
C4874       C  0.69634488  0.55395460  0.90991423    -0.01660
C4875       C  0.70335339  0.55539643  0.93227595     0.03330
C4876       C  0.69420483  0.54093365  0.94872167    -0.04540
C4877       C  0.68011552  0.52332735  0.94153139    -0.01650
C4878       C  0.67674839  0.51940145  0.91848795     0.03330
C4879       C  0.70005557  0.57288445  0.89527489     0.37980
C4880       C  0.66845142  0.50939936  0.95759460     0.37970
C4881       C  0.66570682  0.49887211  0.91186092     0.36390
C4882       C  0.72079045  0.57132524  0.93784379     0.36390
N4883       N  0.65709607  0.48235909  0.90671956    -0.38430
N4884       N  0.73469645  0.58401593  0.94221082    -0.38430
N4885       N  0.65905609  0.49817023  0.97022154    -0.37870
N4886       N  0.70219447  0.58816214  0.88364441    -0.37880
C4887       C  0.66805207  0.39458570  0.77792093    -0.04540
C4888       C  0.67354923  0.37826016  0.76159917    -0.01660
C4889       C  0.67162878  0.35523476  0.76653284     0.03330
C4890       C  0.66405354  0.34818287  0.78769035    -0.04540
C4891       C  0.65877075  0.36428947  0.80405150    -0.01650
C4892       C  0.66061464  0.38726678  0.79926359     0.03330
C4893       C  0.68067037  0.38494357  0.73942274     0.37980
C4894       C  0.65177550  0.35717635  0.82617052     0.37970
C4895       C  0.65541269  0.40313143  0.81686113     0.36390
C4896       C  0.67697144  0.33874678  0.74960333     0.36390
N4897       N  0.65114607  0.41563992  0.83095672    -0.38430
N4898       N  0.68132170  0.32555793  0.73617425    -0.38430
N4899       N  0.64619314  0.35163756  0.84381903    -0.37870
N4900       N  0.68641156  0.39018891  0.72172847    -0.37880
C4901       C  0.81096692  0.51722883  0.76045951    -0.04540
C4902       C  0.81957699  0.49517841  0.75967044    -0.01660
C4903       C  0.84278370  0.49150938  0.75816949     0.03330
C4904       C  0.85758678  0.50972425  0.75671457    -0.04540
C4905       C  0.84915673  0.53172929  0.75731314    -0.01650
C4906       C  0.82591452  0.53550250  0.75937807     0.03330
C4907       C  0.80475982  0.47604396  0.76082209     0.37980
C4908       C  0.86441192  0.55043669  0.75541683     0.37970
C4909       C  0.81733505  0.55817883  0.75955674     0.36390
C4910       C  0.85155879  0.46887474  0.75833248     0.36390
N4911       N  0.81045285  0.57625872  0.75965042    -0.38430
N4912       N  0.85857462  0.45085182  0.75865175    -0.38430
N4913       N  0.87662304  0.56533496  0.75389390    -0.37870
N4914       N  0.79325858  0.46053730  0.76149602    -0.37880
C4915       C  0.91466205  0.59757055  0.29807841    -0.04540
C4916       C  0.90735630  0.61176889  0.28073900    -0.01660
C4917       C  0.90715147  0.63511413  0.28361880     0.03330
C4918       C  0.91527871  0.64489816  0.30375719    -0.04540
C4919       C  0.92402445  0.63044242  0.32056519    -0.01650
C4920       C  0.92352988  0.60698046  0.31773959     0.03330
C4921       C  0.89985713  0.60221453  0.25971806     0.37980
C4922       C  0.93310740  0.63931098  0.34119245     0.37970
C4923       C  0.93152126  0.59246289  0.33547214     0.36390
C4924       C  0.89839933  0.64866594  0.26545050     0.36390
N4925       N  0.93800229  0.58087691  0.34954648    -0.38430
N4926       N  0.89120759  0.65927028  0.25094724    -0.38430
N4927       N  0.94049169  0.64620457  0.35765819    -0.37870
N4928       N  0.89379497  0.59459344  0.24304072    -0.37880
C4929       C  0.85700643  0.53887092  0.28968911    -0.04540
C4930       C  0.84068785  0.54971474  0.30286565    -0.01660
C4931       C  0.81791035  0.54893208  0.29690793     0.03330
C4932       C  0.81044985  0.53486250  0.27925149    -0.04540
C4933       C  0.82692904  0.52256505  0.26711612    -0.01650
C4934       C  0.84996560  0.52520901  0.27183165     0.03330
C4935       C  0.84730622  0.56164504  0.32295014     0.37980
C4936       C  0.82069022  0.50706411  0.24957566     0.37970
C4937       C  0.86640882  0.51418803  0.25778084     0.36390
C4938       C  0.80258516  0.56328323  0.30902733     0.36390
N4939       N  0.87944430  0.50529678  0.24659406    -0.38430
N4940       N  0.79058243  0.57503017  0.31859324    -0.38430
N4941       N  0.81592315  0.49449384  0.23570934    -0.37870
N4942       N  0.85253918  0.57118011  0.33890739    -0.37880
C4943       C  0.99312068  0.50969315  0.44175815    -0.04540
C4944       C  0.99597248  0.52870243  0.42807646    -0.01660
C4945       C  0.99549817  0.52657781  0.40460853     0.03330
C4946       C  0.99338750  0.50531334  0.39470375    -0.04540
C4947       C  0.99040339  0.48633400  0.40826213    -0.01650
C4948       C  0.98982283  0.48851361  0.43165536     0.03330
C4949       C  0.00154949  0.55000750  0.43803838     0.37980
C4950       C  0.98878188  0.46439918  0.39808372     0.37970
C4951       C  0.98589032  0.46878810  0.44523265     0.36390
C4952       C  0.99788117  0.54617280  0.39055767     0.36390
N4953       N  0.98284441  0.45304523  0.45604081    -0.38430
N4954       N  0.99956280  0.56179939  0.37929733    -0.38430
N4955       N  0.98763327  0.44691987  0.38994411    -0.37870
N4956       N  0.00662530  0.56686182  0.44596527    -0.37880
C4957       C  0.05254281  0.49501086  0.33861940    -0.04540
C4958       C  0.06223262  0.47520171  0.33040729    -0.01660
C4959       C  0.08577317  0.47274767  0.32973007     0.03330
C4960       C  0.09999605  0.49028295  0.33725350    -0.04540
C4961       C  0.08988957  0.51051313  0.34477370    -0.01650
C4962       C  0.06645119  0.51279664  0.34524659     0.03330
C4963       C  0.04789917  0.45705169  0.32319336     0.37980
C4964       C  0.10322948  0.52947635  0.35190388     0.37970
C4965       C  0.05651300  0.53372256  0.35259353     0.36390
C4966       C  0.09500254  0.45179676  0.32174652     0.36390
N4967       N  0.04864835  0.55036863  0.35850185    -0.38430
N4968       N  0.10220681  0.43505474  0.31528040    -0.38430
N4969       N  0.11367717  0.54464776  0.35773415    -0.37870
N4970       N  0.03643312  0.44264873  0.31734209    -0.37880
C4971       C  0.96260156  0.40317171  0.25597435    -0.04540
C4972       C  0.98271237  0.39213213  0.25038031    -0.01660
C4973       C  0.98398352  0.36860278  0.25134202     0.03330
C4974       C  0.96498447  0.35606686  0.25753495    -0.04540
C4975       C  0.94514925  0.36727300  0.26401682    -0.01650
C4976       C  0.94399276  0.39073495  0.26321972     0.03330
C4977       C  0.00188331  0.40503612  0.24310602     0.37980
C4978       C  0.92592848  0.35471094  0.27185110     0.37970
C4979       C  0.92335136  0.40211026  0.26907610     0.36390
C4980       C  0.00451341  0.35730282  0.24509280     0.36390
N4981       N  0.90692484  0.41123769  0.27371415    -0.38430
N4982       N  0.02089927  0.34828250  0.24011478    -0.38430
N4983       N  0.91060172  0.34471873  0.27810111    -0.37870
N4984       N  0.01713805  0.41538880  0.23729080    -0.37880
C4985       C  0.94552333  0.46032354  0.19937995    -0.04540
C4986       C  0.96359241  0.46327378  0.18461166    -0.01660
C4987       C  0.95977700  0.46496029  0.16145303     0.03330
C4988       C  0.93773138  0.46381163  0.15281759    -0.04540
C4989       C  0.91976242  0.45988237  0.16761663    -0.01650
C4990       C  0.92360839  0.45852645  0.19085639     0.03330
C4991       C  0.98624955  0.46408614  0.19331822     0.37980
C4992       C  0.89775529  0.45490338  0.15886847     0.37970
C4993       C  0.90511833  0.45460935  0.20602860     0.36390
C4994       C  0.97880855  0.46745929  0.14667939     0.36390
N4995       N  0.89041394  0.45152308  0.21819828    -0.38430
N4996       N  0.99441529  0.46904899  0.13538685    -0.38430
N4997       N  0.88025761  0.45011498  0.15218311    -0.37870
N4998       N  0.00427917  0.46465870  0.20031584    -0.37880
C4999       C  0.19555008  0.03987864  0.94938098    -0.04540
C5000       C  0.21073419  0.04790423  0.93317534    -0.01660
C5001       C  0.20596402  0.04596885  0.91018913     0.03330
C5002       C  0.18593040  0.03550933  0.90275632    -0.04540
C5003       C  0.17096957  0.02696607  0.91920726    -0.01650
C5004       C  0.17578541  0.02917880  0.94225737     0.03330
C5005       C  0.23179886  0.05779981  0.94012471     0.37980
C5006       C  0.15034714  0.01596216  0.91277595     0.37970
C5007       C  0.16006110  0.02075141  0.95869011     0.36390
C5008       C  0.22247444  0.05418242  0.89443302     0.36390
N5009       N  0.14760970  0.01388273  0.97178961    -0.38430
N5010       N  0.23573723  0.06069968  0.88197490    -0.38430
N5011       N  0.13394742  0.00700692  0.90780960    -0.37870
N5012       N  0.24856134  0.06578646  0.94549707    -0.37880
C5013       C  0.05046607  0.99252165  0.83134232    -0.04540
C5014       C  0.05946529  0.97137822  0.83673141    -0.01660
C5015       C  0.08276929  0.96779722  0.83589190     0.03330
C5016       C  0.09708945  0.98500415  0.82854762    -0.04540
C5017       C  0.08785254  0.00598223  0.82250243    -0.01650
C5018       C  0.06464428  0.00971954  0.82406195     0.03330
C5019       C  0.04469342  0.95344123  0.84358927     0.37980
C5020       C  0.10191514  0.02404096  0.81474689     0.37970
C5021       C  0.05525927  0.03141885  0.81851990     0.36390
C5022       C  0.09205026  0.94707787  0.84434624     0.36390
N5023       N  0.04771700  0.04868215  0.81410296    -0.38430
N5024       N  0.09917095  0.93068080  0.85174370    -0.38430
N5025       N  0.11211800  0.03920439  0.80852390    -0.37870
N5026       N  0.03286694  0.93912868  0.84895684    -0.37880
C5027       C  0.16742132  0.89373041  0.77730751    -0.04540
C5028       C  0.17919373  0.87685894  0.76523121    -0.01660
C5029       C  0.17583257  0.85393771  0.77005996     0.03330
C5030       C  0.16201683  0.84735789  0.78804759    -0.04540
C5031       C  0.15105528  0.86409161  0.80064956    -0.01650
C5032       C  0.15241804  0.88672660  0.79434568     0.03330
C5033       C  0.19480087  0.88260239  0.74757640     0.37980
C5034       C  0.13871399  0.85824163  0.82074329     0.37970
C5035       C  0.13765837  0.90244608  0.80537773     0.36390
C5036       C  0.18636159  0.83716184  0.75605433     0.36390
N5037       N  0.12557725  0.91486598  0.81392457    -0.38430
N5038       N  0.19485080  0.82385978  0.74488629    -0.38430
N5039       N  0.12882514  0.85373288  0.83672743    -0.37870
N5040       N  0.20743130  0.88699511  0.73360836    -0.37880
C5041       C  0.23801274  0.10634657  0.81165323    -0.04540
C5042       C  0.23467857  0.11486689  0.78979324    -0.01660
C5043       C  0.23630796  0.13794696  0.78562183     0.03330
C5044       C  0.24158635  0.15264042  0.80307716    -0.04540
C5045       C  0.24480878  0.14433613  0.82490045    -0.01650
C5046       C  0.24319113  0.12122605  0.82916185     0.03330
C5047       C  0.22969815  0.10020248  0.77125928     0.37980
C5048       C  0.25041538  0.15959047  0.84284436     0.37970
C5049       C  0.24838150  0.11271267  0.85122205     0.36390
C5050       C  0.23276273  0.14668843  0.76326377     0.36390
N5051       N  0.25294167  0.10621664  0.86884306    -0.38430
N5052       N  0.22987538  0.15370517  0.74548347    -0.38430
N5053       N  0.25488803  0.17181155  0.85710638    -0.37870
N5054       N  0.22596575  0.08943086  0.75569952    -0.37880
C5055       C  0.21968390  0.96604328  0.68979402    -0.04540
C5056       C  0.19811602  0.95838129  0.68323188    -0.01660
C5057       C  0.19218777  0.95736377  0.66047668     0.03330
C5058       C  0.20779569  0.96311739  0.64377534    -0.04540
C5059       C  0.22910604  0.97106989  0.65009992    -0.01650
C5060       C  0.23498916  0.97267404  0.67289493     0.03330
C5061       C  0.18151738  0.95171982  0.69964486     0.37980
C5062       C  0.24542246  0.97687137  0.63311130     0.37970
C5063       C  0.25716630  0.98062632  0.67866395     0.36390
C5064       C  0.16979750  0.95034099  0.65417508     0.36390
N5065       N  0.27482906  0.98711042  0.68313823    -0.38430
N5066       N  0.15201700  0.94463358  0.64914522    -0.38430
N5067       N  0.25838455  0.98157713  0.61956044    -0.37870
N5068       N  0.16822396  0.94619823  0.71255946    -0.37880
C5069       C  0.35503617  0.20934739  0.05374252    -0.04540
C5070       C  0.34467326  0.20649190  0.07470834    -0.01660
C5071       C  0.32111809  0.20629287  0.07638510     0.03330
C5072       C  0.30783166  0.20966028  0.05716737    -0.04540
C5073       C  0.31838751  0.21336791  0.03627500    -0.01650
C5074       C  0.34186282  0.21291186  0.03458124     0.03330
C5075       C  0.35834091  0.20307271  0.09442289     0.37980
C5076       C  0.30519426  0.21771663  0.01637049     0.37970
C5077       C  0.35253358  0.21527201  0.01293133     0.36390
C5078       C  0.31062555  0.20082178  0.09749271     0.36390
N5079       N  0.36108342  0.21702338  0.99568934    -0.38430
N5080       N  0.30224998  0.19601069  0.11422770    -0.38430
N5081       N  0.29470222  0.22109592  0.00047884    -0.37870
N5082       N  0.36931681  0.20046306  0.11012522    -0.37880
C5083       C  0.41723197  0.10576998  0.02889746    -0.04540
C5084       C  0.40846415  0.11272406  0.04988649    -0.01660
C5085       C  0.40635685  0.13564473  0.05498663     0.03330
C5086       C  0.41251419  0.15206500  0.03921039    -0.04540
C5087       C  0.42104266  0.14530386  0.01835159    -0.01650
C5088       C  0.42361759  0.12241564  0.01323544     0.03330
C5089       C  0.40201368  0.09655232  0.06679683     0.37980
C5090       C  0.42603586  0.16197019  0.00158730     0.37970
C5091       C  0.43239109  0.11626398  0.99149633     0.36390
C5092       C  0.39787634  0.14237416  0.07670360     0.36390
N5093       N  0.43953693  0.11147972  0.97419210    -0.38430
N5094       N  0.39099567  0.14772931  0.09394507    -0.38430
N5095       N  0.42972762  0.17536237  0.98819760    -0.37870
N5096       N  0.39672673  0.08379488  0.08033352    -0.37880
C5097       C  0.55051037  0.25444113  0.00900060    -0.04540
C5098       C  0.56695171  0.23878033  0.00256994    -0.01660
C5099       C  0.58986369  0.24406300  0.00416102     0.03330
C5100       C  0.59681940  0.26523282  0.01243096    -0.04540
C5101       C  0.58015129  0.28062018  0.01959138    -0.01650
C5102       C  0.55721209  0.27520227  0.01790125     0.03330
C5103       C  0.56022030  0.21698904  0.99429062     0.37980
C5104       C  0.58629308  0.30236652  0.02832920     0.37970
C5105       C  0.54045203  0.29140344  0.02470806     0.36390
C5106       C  0.60604726  0.22710634  0.99778744     0.36390
N5107       N  0.52708871  0.30425162  0.03026415    -0.38430
N5108       N  0.61882897  0.21350729  0.99266594    -0.38430
N5109       N  0.59105806  0.31967940  0.03545131    -0.37870
N5110       N  0.55484956  0.19969991  0.98755985    -0.37880
C5111       C  0.49528970  0.24637791  0.94840107    -0.04540
C5112       C  0.50794045  0.26057296  0.93440675    -0.01660
C5113       C  0.50990818  0.25603783  0.91147587     0.03330
C5114       C  0.49583429  0.24001633  0.90107215    -0.04540
C5115       C  0.48140635  0.22714736  0.91493955    -0.01650
C5116       C  0.48189088  0.22975176  0.93843867     0.03330
C5117       C  0.51893845  0.28018166  0.94356914     0.37980
C5118       C  0.46590068  0.21113510  0.90543363     0.37970
C5119       C  0.46875405  0.21500785  0.95230954     0.36390
C5120       C  0.52763457  0.26712063  0.89921899     0.36390
N5121       N  0.45816207  0.20328451  0.96337488    -0.38430
N5122       N  0.54211646  0.27569156  0.88972720    -0.38430
N5123       N  0.45342593  0.19838263  0.89800740    -0.37870
N5124       N  0.52765397  0.29580325  0.95085455    -0.37880
C5125       C  0.46332234  0.34766295  0.08478781    -0.04540
C5126       C  0.44414930  0.36125000  0.08325325    -0.01660
C5127       C  0.44621222  0.38464556  0.08271707     0.03330
C5128       C  0.46764680  0.39479882  0.08365003    -0.04540
C5129       C  0.48694026  0.38101012  0.08363781    -0.01650
C5130       C  0.48472680  0.35748823  0.08434829     0.03330
C5131       C  0.42214579  0.35102434  0.08254879     0.37980
C5132       C  0.50905656  0.39089653  0.08366091     0.37970
C5133       C  0.50441339  0.34333415  0.08502586     0.36390
C5134       C  0.42606946  0.39811182  0.08072335     0.36390
N5135       N  0.52010186  0.33199609  0.08546254    -0.38430
N5136       N  0.40998048  0.40878275  0.07919627    -0.38430
N5137       N  0.52672144  0.39876584  0.08358337    -0.37870
N5138       N  0.40464859  0.34282136  0.08191593    -0.37880
C5139       C  0.44469987  0.29224218  0.14291975    -0.04540
C5140       C  0.45651241  0.27517903  0.15425912    -0.01660
C5141       C  0.45459985  0.27298871  0.17761895     0.03330
C5142       C  0.44146380  0.28821707  0.18997523    -0.04540
C5143       C  0.42897635  0.30467898  0.17874783    -0.01650
C5144       C  0.43022119  0.30644811  0.15527389     0.03330
C5145       C  0.47164536  0.26055508  0.14219506     0.37980
C5146       C  0.41546328  0.32028017  0.19145762     0.37970
C5147       C  0.41667201  0.32308712  0.14394585     0.36390
C5148       C  0.46656625  0.25516641  0.18893406     0.36390
N5149       N  0.40585842  0.33648506  0.13510637    -0.38430
N5150       N  0.47619457  0.24073402  0.19750588    -0.38430
N5151       N  0.40479179  0.33279165  0.20162952    -0.37870
N5152       N  0.48368908  0.24883343  0.13262186    -0.37880
C5153       C  0.55059389  0.96006682  0.80743424    -0.04540
C5154       C  0.56258189  0.97462517  0.79330315    -0.01660
C5155       C  0.58566561  0.97791564  0.79659570     0.03330
C5156       C  0.59708521  0.96630045  0.81372336    -0.04540
C5157       C  0.58519966  0.95180457  0.82790726    -0.01650
C5158       C  0.56197238  0.94884256  0.82494194     0.03330
C5159       C  0.55137765  0.98559632  0.77477166     0.37980
C5160       C  0.59694393  0.93977519  0.84537817     0.37970
C5161       C  0.54977217  0.93431702  0.84001933     0.36390
C5162       C  0.59755460  0.99328859  0.78213492     0.36390
N5163       N  0.54006940  0.92267845  0.85201931    -0.38430
N5164       N  0.60640846  0.00574758  0.77031129    -0.38430
N5165       N  0.60633411  0.93009511  0.85925082    -0.37870
N5166       N  0.54244358  0.99433233  0.76000176    -0.37880
C5167       C  0.35669028  0.01159545  0.75552226    -0.04540
C5168       C  0.34507639  0.02827938  0.74330245    -0.01660
C5169       C  0.32183625  0.03127337  0.74627322     0.03330
C5170       C  0.31019569  0.01805453  0.76184500    -0.04540
C5171       C  0.32187468  0.00189552  0.77454364    -0.01650
C5172       C  0.34493778  0.99846089  0.77118523     0.03330
C5173       C  0.35706002  0.04249289  0.72776037     0.37980
C5174       C  0.31024434  0.98852313  0.79106192     0.37970
C5175       C  0.35633369  0.98072631  0.78324824     0.36390
C5176       C  0.30983267  0.04781639  0.73321892     0.36390
N5177       N  0.36541802  0.96659579  0.79286272    -0.38430
N5178       N  0.30020848  0.06095048  0.72275719    -0.38430
N5179       N  0.30157473  0.97761131  0.80444822    -0.37870
N5180       N  0.36664023  0.05378024  0.71533184    -0.37880
C5181       C  0.41353123  0.98997146  0.69941310    -0.04540
C5182       C  0.42636724  0.00561982  0.68732927    -0.01660
C5183       C  0.42759391  0.00429746  0.66388314     0.03330
C5184       C  0.41607827  0.98727182  0.65229190    -0.04540
C5185       C  0.40428449  0.97088184  0.66437432    -0.01650
C5186       C  0.40296347  0.97224094  0.68788559     0.03330
C5187       C  0.43740181  0.02382802  0.69888457     0.37980
C5188       C  0.39267800  0.95325975  0.65253567     0.37970
C5189       C  0.39033396  0.95565528  0.70022408     0.36390
C5190       C  0.44060048  0.02072451  0.65168663     0.36390
N5191       N  0.38020707  0.94247411  0.71008876    -0.38430
N5192       N  0.45101638  0.03396076  0.64220688    -0.38430
N5193       N  0.38337124  0.93924976  0.64304647    -0.37870
N5194       N  0.44623434  0.03830746  0.70811902    -0.37880
C5195       C  0.46578616  0.04160997  0.89382474    -0.04540
C5196       C  0.45421180  0.02442571  0.90517356    -0.01660
C5197       C  0.45819414  0.02053561  0.92804466     0.03330
C5198       C  0.47288869  0.03446287  0.94014119    -0.04540
C5199       C  0.48454663  0.05154038  0.92897213    -0.01650
C5200       C  0.48149327  0.05474452  0.90579093     0.03330
C5201       C  0.43738873  0.01128993  0.89368151     0.37980
C5202       C  0.49962020  0.06583865  0.94138909     0.37970
C5203       C  0.49477754  0.07140622  0.89425204     0.36390
C5204       C  0.44680526  0.00223628  0.93912370     0.36390
N5205       N  0.50534504  0.08472404  0.88505340    -0.38430
N5206       N  0.43761794  0.98741001  0.94744268    -0.38430
N5207       N  0.51155390  0.07730470  0.95134904    -0.37870
N5208       N  0.42399337  0.00078536  0.88454144    -0.37880
C5209       C  0.44160685  0.14604973  0.83501014    -0.04540
C5210       C  0.42689600  0.13481653  0.84951648    -0.01660
C5211       C  0.42733956  0.11124389  0.85084583     0.03330
C5212       C  0.44289260  0.09877512  0.83799239    -0.04540
C5213       C  0.45675634  0.11010739  0.82259341    -0.01650
C5214       C  0.45594924  0.13358664  0.82099485     0.03330
C5215       C  0.41194107  0.14757572  0.86367666     0.37980
C5216       C  0.47276825  0.09782616  0.80912232     0.37970
C5217       C  0.47017832  0.14487417  0.80494345     0.36390
C5218       C  0.41195071  0.09982677  0.86567760     0.36390
N5219       N  0.48165437  0.15341412  0.79194778    -0.38430
N5220       N  0.39973148  0.09071067  0.87756371    -0.38430
N5221       N  0.48548414  0.08806700  0.79829953    -0.37870
N5222       N  0.40009852  0.15779509  0.87504300    -0.37880
C5223       C  0.41199314  0.59851891  0.79760086    -0.04540
C5224       C  0.40463863  0.61306231  0.78057488    -0.01660
C5225       C  0.40453222  0.63635381  0.78382547     0.03330
C5226       C  0.41338330  0.64584503  0.80379942    -0.04540
C5227       C  0.42266190  0.63104845  0.82004811    -0.01650
C5228       C  0.42139081  0.60759336  0.81717151     0.03330
C5229       C  0.39753846  0.60403864  0.75921448     0.37980
C5230       C  0.43380027  0.63952086  0.83979514     0.37970
C5231       C  0.42936806  0.59276871  0.83464929     0.36390
C5232       C  0.39542071  0.65015417  0.76601077     0.36390
N5233       N  0.43578810  0.58094441  0.84855241    -0.38430
N5234       N  0.38798333  0.66093492  0.75176226    -0.38430
N5235       N  0.44309678  0.64597475  0.85544781    -0.37870
N5236       N  0.39199302  0.59716834  0.74205164    -0.37880
C5237       C  0.44618645  0.78905838  0.69103469    -0.04540
C5238       C  0.42907209  0.78067464  0.67676705    -0.01660
C5239       C  0.43122199  0.78223408  0.65330880     0.03330
C5240       C  0.45062683  0.79151333  0.64377920    -0.04540
C5241       C  0.46852372  0.79785551  0.65767978    -0.01650
C5242       C  0.46650949  0.79644919  0.68104759     0.03330
C5243       C  0.40943709  0.76970655  0.68575636     0.37980
C5244       C  0.48930420  0.80569807  0.64781641     0.37970
C5245       C  0.48613359  0.80146036  0.69441740     0.36390
C5246       C  0.41318814  0.77473296  0.63893731     0.36390
N5247       N  0.50196378  0.80524652  0.70485594    -0.38430
N5248       N  0.39886903  0.76867012  0.62745730    -0.38430
N5249       N  0.50580611  0.81201331  0.63995871    -0.37870
N5250       N  0.39392171  0.76041191  0.69257904    -0.37880
C5251       C  0.49281789  0.85631268  0.78664780    -0.04540
C5252       C  0.49530175  0.86962734  0.76725766    -0.01660
C5253       C  0.49567404  0.89316192  0.76898264     0.03330
C5254       C  0.49336248  0.90350139  0.78998476    -0.04540
C5255       C  0.48972496  0.89036522  0.80915014    -0.01650
C5256       C  0.48933414  0.86691270  0.80753453     0.03330
C5257       C  0.49834592  0.85925480  0.74562729     0.37980
C5258       C  0.48696578  0.90107848  0.83071061     0.37970
C5259       C  0.48481366  0.85380708  0.82744364     0.36390
C5260       C  0.49904606  0.90681561  0.74925454     0.36390
N5261       N  0.48120117  0.84338936  0.84332387    -0.38430
N5262       N  0.50170012  0.91775601  0.73353997    -0.38430
N5263       N  0.48478035  0.90967342  0.84786475    -0.37870
N5264       N  0.50075212  0.85116014  0.72826699    -0.37880
C5265       C  0.34823244  0.74200053  0.75567877    -0.04540
C5266       C  0.33761931  0.75919556  0.74299169    -0.01660
C5267       C  0.31420028  0.76170513  0.74331970     0.03330
C5268       C  0.30056057  0.74614683  0.75465772    -0.04540
C5269       C  0.31074001  0.72925892  0.76754441    -0.01650
C5270       C  0.33433531  0.72747844  0.76856744     0.03330
C5271       C  0.35028199  0.77473826  0.72931281     0.37980
C5272       C  0.29690738  0.71332874  0.77947412     0.37970
C5273       C  0.34385147  0.71073313  0.78333721     0.36390
C5274       C  0.30409338  0.78072870  0.73199251     0.36390
N5275       N  0.35121712  0.69744680  0.79533013    -0.38430
N5276       N  0.29622913  0.79587926  0.72287996    -0.38430
N5277       N  0.28584282  0.70069872  0.78904061    -0.37870
N5278       N  0.35992801  0.78738278  0.71832097    -0.37880
C5279       C  0.46335461  0.70915089  0.90123889    -0.04540
C5280       C  0.47854551  0.72083592  0.91543754    -0.01660
C5281       C  0.47684076  0.71911474  0.93896711     0.03330
C5282       C  0.45923778  0.70698068  0.94881105    -0.04540
C5283       C  0.44309360  0.69687029  0.93492809    -0.01650
C5284       C  0.44554043  0.69707184  0.91154152     0.03330
C5285       C  0.49580854  0.73519355  0.90631648     0.37980
C5286       C  0.42352375  0.68631138  0.94477885     0.37970
C5287       C  0.42920262  0.68467244  0.89858046     0.36390
C5288       C  0.49360197  0.72945889  0.95307481     0.36390
N5289       N  0.41598760  0.67469910  0.88861433    -0.38430
N5290       N  0.50695140  0.73769031  0.96435392    -0.38430
N5291       N  0.40797058  0.67784503  0.95254174    -0.37870
N5292       N  0.50944568  0.74697445  0.89931524    -0.37880
C5293       C  0.80093133  0.70926339  0.78484186    -0.04540
C5294       C  0.80803926  0.71675471  0.76367142    -0.01660
C5295       C  0.83106717  0.71954428  0.75914915     0.03330
C5296       C  0.84725272  0.71496311  0.77588469    -0.04540
C5297       C  0.83988273  0.70764897  0.79724416    -0.01650
C5298       C  0.81691598  0.70490606  0.80162419     0.03330
C5299       C  0.79163460  0.72108744  0.74633956     0.37980
C5300       C  0.85567233  0.70353679  0.81523982     0.37970
C5301       C  0.80964096  0.69788772  0.82369821     0.36390
C5302       C  0.83796644  0.72655183  0.73700441     0.36390
N5303       N  0.80382137  0.69223753  0.84124076    -0.38430
N5304       N  0.84341091  0.73218164  0.71933413    -0.38430
N5305       N  0.86813740  0.70012983  0.82963882    -0.37870
N5306       N  0.77850006  0.72460406  0.73258044    -0.37880
C5307       C  0.74445783  0.65211587  0.80359893    -0.04540
C5308       C  0.74517142  0.63644014  0.78608888    -0.01660
C5309       C  0.74353293  0.61340619  0.79068520     0.03330
C5310       C  0.74122444  0.60573108  0.81301039    -0.04540
C5311       C  0.74141056  0.62150446  0.83057059    -0.01650
C5312       C  0.74253675  0.64461520  0.82584455     0.03330
C5313       C  0.74773150  0.64411191  0.76321453     0.37980
C5314       C  0.74266329  0.61398385  0.85352390     0.37970
C5315       C  0.74246816  0.66071372  0.84392074     0.36390
C5316       C  0.74434747  0.59780576  0.77217901     0.36390
N5317       N  0.74233085  0.67361459  0.85828768    -0.38430
N5318       N  0.74535927  0.58565513  0.75720576    -0.38430
N5319       N  0.74442672  0.60826286  0.87189323    -0.37870
N5320       N  0.74985554  0.65026997  0.74501902    -0.37880
C5321       C  0.69089853  0.84681367  0.75533552    -0.04540
C5322       C  0.70595131  0.85892335  0.76881495    -0.01660
C5323       C  0.70291166  0.88203983  0.77205747     0.03330
C5324       C  0.68491593  0.89334698  0.76168027    -0.04540
C5325       C  0.66967639  0.88126527  0.74844353    -0.01650
C5326       C  0.67261411  0.85804752  0.74530491     0.03330
C5327       C  0.72514545  0.84777124  0.77869267     0.37980
C5328       C  0.65122669  0.89282553  0.73775784     0.37970
C5329       C  0.65681639  0.84568556  0.73175569     0.36390
C5330       C  0.71849440  0.89406567  0.78614593     0.36390
N5331       N  0.64425186  0.83579031  0.72092171    -0.38430
N5332       N  0.73123682  0.90304148  0.79754904    -0.38430
N5333       N  0.63654982  0.90209071  0.72918254    -0.37870
N5334       N  0.74043352  0.83886722  0.78655868    -0.37880
C5335       C  0.71469797  0.79103840  0.69860982    -0.04540
C5336       C  0.73065837  0.80409696  0.68691434    -0.01660
C5337       C  0.73432275  0.80062645  0.66388310     0.03330
C5338       C  0.72285630  0.78348826  0.65264683    -0.04540
C5339       C  0.70769761  0.76980879  0.66447350    -0.01650
C5340       C  0.70323187  0.77388223  0.68718367     0.03330
C5341       C  0.74356928  0.82091876  0.69859874     0.37980
C5342       C  0.69630382  0.75161427  0.65326611     0.37970
C5343       C  0.68605920  0.76096419  0.69844334     0.36390
C5344       C  0.74988800  0.81463787  0.65171447     0.36390
N5345       N  0.67237960  0.75065245  0.70740479    -0.38430
N5346       N  0.76224350  0.82585424  0.64195813    -0.38430
N5347       N  0.68709127  0.73689016  0.64483196    -0.37870
N5348       N  0.75383878  0.83435339  0.70792964    -0.37880
C5349       C  0.66749475  0.74239354  0.89316485    -0.04540
C5350       C  0.66737284  0.72018463  0.90109785    -0.01660
C5351       C  0.66885592  0.71582091  0.92421805     0.03330
C5352       C  0.67029865  0.73369452  0.93955677    -0.04540
C5353       C  0.67048429  0.75596615  0.93142116    -0.01650
C5354       C  0.66935724  0.76020639  0.90832529     0.03330
C5355       C  0.66498829  0.70186460  0.88545986     0.37980
C5356       C  0.67189719  0.77478003  0.94657300     0.37970
C5357       C  0.66991085  0.78300764  0.90002875     0.36390
C5358       C  0.66772527  0.69298564  0.93226315     0.36390
N5359       N  0.67042230  0.80114680  0.89335135    -0.38430
N5360       N  0.66671034  0.67478506  0.93871327    -0.38430
N5361       N  0.67271200  0.79019066  0.95817082    -0.37870
N5362       N  0.66307175  0.68728427  0.87294668    -0.37880
C5363       C  0.60682064  0.75571612  0.83952206    -0.04540
C5364       C  0.59273362  0.74015519  0.85029865    -0.01660
C5365       C  0.56946006  0.74353097  0.85106899     0.03330
C5366       C  0.55925607  0.76109796  0.83856399    -0.04540
C5367       C  0.57353583  0.77596406  0.82654197    -0.01650
C5368       C  0.59710836  0.77358831  0.82758848     0.03330
C5369       C  0.60218863  0.72016436  0.86047301     0.37980
C5370       C  0.56441295  0.79380884  0.81286287     0.37970
C5371       C  0.61138185  0.78980866  0.81658984     0.36390
C5372       C  0.55652418  0.72873485  0.86533026     0.36390
N5373       N  0.62276188  0.80269681  0.80775226    -0.38430
N5374       N  0.54654083  0.71683145  0.87684027    -0.38430
N5375       N  0.55733606  0.80802464  0.80179604    -0.37870
N5376       N  0.60960373  0.70425274  0.86861652    -0.37880
loop_ 
_geom_bond_atom_site_label_1 
_geom_bond_atom_site_label_2 
_geom_bond_distance 
_geom_bond_site_symmetry_2 
_ccdc_geom_bond_type 
C1            C2   1.399       .  A
C1            C6   1.391       .  A
C1         C5349   1.480       .  S
C2            C3   1.411       .  A
C2            H7   1.083       .  S
C3            C4   1.414       .  A
C3           C10   1.489       .  S
C4            C5   1.410       .  A
C4            H8   1.083       .  S
C5            C6   1.398       .  A
C5         C5363   1.496       .  S
C6            H9   1.085       .  S
C10          C11   1.407       .  A
C10          C15   1.406       .  A
C11          C12   1.410       .  A
C11          H16   1.083       .  S
C12          C13   1.411       .  A
C12          C21   1.498       .  S
C13          C14   1.409       .  A
C13          H17   1.082       .  S
C14          C15   1.406       .  A
C14          C30   1.494       .  S
C15          H18   1.083       .  S
C19          C20   1.407       .  A
C19          C24   1.397       .  A
C19        C5321   1.490       .  S
C20          C21   1.412       .  A
C20          H25   1.083       .  S
C21          C22   1.410       .  A
C22          C23   1.407       .  A
C22          H26   1.082       .  S
C23          C24   1.398       .  A
C23        C5335   1.493       .  S
C24          H27   1.084       .  S
C28          C29   1.405       .  A
C28          C33   1.396       .  A
C28        C5293   1.487       .  S
C29          C30   1.412       .  A
C29          H34   1.083       .  S
C30          C31   1.414       .  A
C31          C32   1.405       .  A
C31          H35   1.083       .  S
C32          C33   1.394       .  A
C32        C5307   1.485       .  S
C33          H36   1.085       .  S
O37         Mg39   2.119       .  S
O37         Mg45   2.117       .  S
O37          C72   1.240       .  S
C38          H77   1.083       .  S
C38          O51   1.239       .  S
C38          O75   1.273       .  A
Mg39         O68   2.111       .  S
Mg39         O83   2.314       .  S
Mg39         O79   2.246       .  S
Mg39         O50   2.313       .  S
O40         Mg82   2.124       .  S
O40         Mg65   2.123       .  S
O40          C61   1.239       .  S
O41          C72   1.275       .  A
O41         Mg65   2.316       .  S
C42        C5279   1.515       .  S
C42          O44   1.268       .  A
C42          O56   1.275       .  A
O43          C71   1.274       .  A
O43         Mg45   2.310       .  S
O44         Mg76   2.240       .  S
Mg45         O51   2.121       .  S
Mg45         O59   2.244       .  S
Mg45         O47   2.317       .  S
C46        C5366   1.514       .  S
C46          O84   1.269       .  A
C46          O52   1.276       .  A
O47          C54   1.273       .  A
H48          C61   1.081       .  S
C49          H74   1.082       .  S
C49          O63   1.240       .  S
C49          O64   1.275       .  A
O50          C73   1.274       .  A
O51         Mg65   2.110       .  S
O52         Mg82   2.326       .  S
C53        C5251   1.490       .  S
C53          O66   1.272       .  A
C53          O58   1.275       .  A
C54        C5237   1.507       .  S
C54          O81   1.269       .  A
Mg55         O62   2.120       .  S
Mg55         O63   2.119       .  S
Mg55         O56   2.328       .  S
Mg55         O57   2.306       .  S
Mg55         O84   2.236       .  S
O57          C61   1.273       .  A
O58         Mg65   2.315       .  S
O59          C78   1.269       .  A
O60          C80   1.275       .  A
O60         Mg76   2.334       .  S
O62         Mg76   2.111       .  S
O62          C73   1.239       .  S
O63         Mg82   2.129       .  S
O64         Mg76   2.313       .  S
Mg65         O81   2.253       .  S
O66         Mg82   2.258       .  S
H67          C72   1.083       .  S
O68         Mg76   2.123       .  S
O68          C71   1.240       .  S
H69          C71   1.082       .  S
H70          C73   1.083       .  S
O75         Mg82   2.307       .  S
C78        C5265   1.514       .  S
C78          O83   1.273       .  A
O79          C80   1.268       .  A
C80        C5226   1.512       .  S
C85          C86   1.410       .  A
C85          C90   1.398       .  A
C85        C5212   1.496       .  S
C86          C87   1.413       .  A
C86          H91   1.082       .  S
C87          C88   1.413       .  A
C87          C94   1.503       .  S
C88          C89   1.408       .  A
C88          H92   1.082       .  S
C89          C90   1.397       .  A
C89        C5195   1.498       .  S
C90          H93   1.084       .  S
C94          C95   1.411       .  A
C94          C99   1.410       .  A
C95          C96   1.411       .  A
C95         H100   1.082       .  S
C96          C97   1.408   1_545  A
C96         C105   1.498       .  S
C97          C98   1.407       .  A
C97         H101   1.083       .  S
C98          C99   1.408   1_565  A
C98         C114   1.495       .  S
C99         H102   1.082       .  S
C103        C104   1.407       .  A
C103        C108   1.396       .  A
C103       C5181   1.490       .  S
C104        C105   1.413   1_565  A
C104        H109   1.083       .  S
C105        C106   1.411       .  A
C106        C107   1.407       .  A
C106        H110   1.083       .  S
C107        C108   1.396   1_545  A
C107       C5167   1.491       .  S
C108        H111   1.085       .  S
C112        C113   1.404       .  A
C112        C117   1.394       .  A
C112       C5254   1.481       .  S
C113        C114   1.413       .  A
C113        H118   1.083       .  S
C114        C115   1.412       .  A
C115        C116   1.407       .  A
C115        H119   1.083       .  S
C116        C117   1.395       .  A
C116       C5153   1.489       .  S
C117        H120   1.085       .  S
C121        C122   1.410       .  A
C121        C126   1.398       .  A
C121       C5139   1.497       .  S
C122        C123   1.413       .  A
C122        H127   1.082       .  S
C123        C124   1.412       .  A
C123        C132   1.496       .  S
C124        C125   1.402       .  A
C124        H128   1.083       .  S
C125        C126   1.394       .  A
C125       C5125   1.483       .  S
C126        H129   1.084       .  S
C130        C131   1.411       .  A
C130        C135   1.410       .  A
C130        C150   1.494       .  S
C131        C132   1.410       .  A
C131        H136   1.083       .  S
C132        C133   1.408       .  A
C133        C134   1.405       .  A
C133        H137   1.083       .  S
C134        C135   1.406       .  A
C134        C141   1.488       .  S
C135        H138   1.084       .  S
C139        C140   1.403       .  A
C139        C144   1.393   1_554  A
C139       C5097   1.492       .  S
C140        C141   1.410       .  A
C140        H145   1.084       .  S
C141        C142   1.413   1_554  A
C142        C143   1.412       .  A
C142        H146   1.083       .  S
C143        C144   1.399       .  A
C143       C5111   1.502       .  S
C144        H147   1.084       .  S
C148        C149   1.410       .  A
C148        C153   1.395       .  A
C148       C5086   1.494       .  S
C149        C150   1.415       .  A
C149        H154   1.083       .  S
C150        C151   1.411       .  A
C151        C152   1.403       .  A
C151        H155   1.083       .  S
C152        C153   1.393       .  A
C152       C5069   1.480       .  S
C153        H156   1.085       .  S
O157       Mg159   2.115       .  S
O157       Mg165   2.134   1_565  S
O157        C192   1.240       .  S
C158        H197   1.081       .  S
C158        O171   1.238       .  S
C158        O195   1.273       .  A
Mg159       O188   2.129       .  S
Mg159       O203   2.300       .  S
Mg159       O199   2.256       .  S
Mg159       O170   2.305       .  S
O160       Mg202   2.124       .  S
O160       Mg185   2.121       .  S
O160        C181   1.240       .  S
O161        C192   1.274       .  A
O161       Mg185   2.300   1_565  S
C162       C5016   1.483       .  S
C162        O164   1.272       .  A
C162        O176   1.276       .  A
O163        C191   1.272   1_545  A
O163       Mg165   2.300       .  S
O164       Mg196   2.269       .  S
Mg165       O171   2.116       .  S
Mg165       O179   2.256   1_545  S
Mg165       O167   2.319       .  S
C166       C5002   1.512       .  S
C166        O204   1.272       .  A
C166        O172   1.277       .  A
O167        C174   1.275       .  A
H168        C181   1.082       .  S
C169        H194   1.081       .  S
C169        O183   1.238       .  S
C169        O184   1.273       .  A
O170        C193   1.274       .  A
O171       Mg185   2.123       .  S
O172       Mg202   2.315       .  S
C173       C5041   1.484       .  S
C173        O186   1.273       .  A
C173        O178   1.275       .  A
C174       C5170   1.478       .  S
C174        O201   1.270       .  A
Mg175       O182   2.129       .  S
Mg175       O183   2.123   1_565  S
Mg175       O176   2.322       .  S
Mg175       O177   2.304       .  S
Mg175       O204   2.263   1_565  S
O177        C181   1.274   1_565  A
O178       Mg185   2.312       .  S
O179        C198   1.272       .  A
O180        C200   1.277       .  A
O180       Mg196   2.314       .  S
O182       Mg196   2.126       .  S
O182        C193   1.240       .  S
O183       Mg202   2.105       .  S
O184       Mg196   2.297   1_545  S
Mg185       O201   2.256       .  S
O186       Mg202   2.268       .  S
H187        C192   1.082       .  S
O188       Mg196   2.112       .  S
O188        C191   1.239       .  S
H189        C191   1.083       .  S
H190        C193   1.082       .  S
O195       Mg202   2.300       .  S
C198       C5055   1.503       .  S
C198        O203   1.275       .  A
O199        C200   1.270       .  A
C200       C5027   1.515       .  S
C205        C206   1.405       .  A
C205        C210   1.393       .  A
C205       C4985   1.483       .  S
C206        C207   1.413       .  A
C206        H211   1.083       .  S
C207        C208   1.411       .  A
C207        C223   1.491       .  S
C208        C209   1.403       .  A
C208        H212   1.083       .  S
C209        C210   1.394       .  A
C209       C4971   1.480       .  S
C210        H213   1.085       .  S
C214        C215   1.406       .  A
C214        C219   1.396       .  A
C214       C4957   1.489       .  S
C215        C216   1.413   1_455  A
C215        H220   1.083       .  S
C216        C217   1.412       .  A
C216        C225   1.489       .  S
C217        C218   1.402       .  A
C217        H221   1.083       .  S
C218        C219   1.392   1_655  A
C218       C4946   1.481       .  S
C219        H222   1.085       .  S
C223        C224   1.409       .  A
C223        C228   1.406       .  A
C224        C225   1.408       .  A
C224        H229   1.083       .  S
C225        C226   1.407       .  A
C226        C227   1.404       .  A
C226        H230   1.084       .  S
C227        C228   1.405       .  A
C227        C234   1.485       .  S
C228        H231   1.084       .  S
C232        C233   1.407       .  A
C232        C237   1.398       .  A
C232       C4929   1.498       .  S
C233        C234   1.410       .  A
C233        H238   1.083       .  S
C234        C235   1.410       .  A
C235        C236   1.404       .  A
C235        H239   1.083       .  S
C236        C237   1.397       .  A
C236       C4915   1.491       .  S
C237        H240   1.084       .  S
O241       Mg243   2.124       .  S
O241       Mg249   2.127       .  S
O241        C276   1.239       .  S
C242        H281   1.082       .  S
C242        O255   1.239       .  S
C242        O279   1.272       .  A
Mg243       O272   2.129       .  S
Mg243       O287   2.301       .  S
Mg243       O283   2.260       .  S
Mg243       O254   2.298       .  S
O244       Mg286   2.142       .  S
O244       Mg269   2.121       .  S
O244        C265   1.240       .  S
O245        C276   1.273       .  A
O245       Mg269   2.308       .  S
C246       C4845   1.484       .  S
C246        O248   1.273       .  A
C246        O260   1.275       .  A
O247        C275   1.273       .  A
O247       Mg249   2.300       .  S
O248       Mg280   2.269       .  S
Mg249       O255   2.131       .  S
Mg249       O263   2.287       .  S
Mg249       O251   2.320       .  S
C250       C4887   1.501       .  S
C250        O288   1.271       .  A
C250        O256   1.275       .  A
O251        C258   1.278       .  A
H252        C265   1.082       .  S
C253        H278   1.082       .  S
C253        O267   1.239       .  S
C253        O268   1.272       .  A
O254        C277   1.273       .  A
O255       Mg269   2.129       .  S
O256       Mg286   2.303       .  S
C257       C4859   1.497       .  S
C257        O270   1.271       .  A
C257        O262   1.275       .  A
C258       C4873   1.506       .  S
C258        O285   1.269       .  A
Mg259       O266   2.118       .  S
Mg259       O267   2.131       .  S
Mg259       O260   2.310       .  S
Mg259       O261   2.304       .  S
Mg259       O288   2.256       .  S
O261        C265   1.274       .  A
O262       Mg269   2.299       .  S
O263        C282   1.275       .  A
O264        C284   1.277       .  A
O264       Mg280   2.312       .  S
O266       Mg280   2.128       .  S
O266        C277   1.239       .  S
O267       Mg286   2.107       .  S
O268       Mg280   2.296       .  S
Mg269       O285   2.253       .  S
O270       Mg286   2.251       .  S
H271        C276   1.083       .  S
O272       Mg280   2.120       .  S
O272        C275   1.240       .  S
H273        C275   1.081       .  S
H274        C277   1.081       .  S
O279       Mg286   2.304       .  S
C282       C5310   1.494       .  S
C282        O287   1.275       .  A
O283        C284   1.272       .  A
C284       C4901   1.487       .  S
C289        C290   1.394       .  A
C289        C294   1.401       .  A
C289       C4831   1.483       .  S
C290        C291   1.400       .  A
C290        H295   1.084       .  S
C291        C292   1.410       .  A
C291       C4820   1.501       .  S
C292        C293   1.411       .  A
C292        H296   1.083       .  S
C293        C294   1.409       .  A
C293        C298   1.490       .  S
C294        H297   1.083       .  S
C298        C299   1.408       .  A
C298        C303   1.408       .  A
C299        C300   1.409       .  A
C299        H304   1.082       .  S
C300        C301   1.409       .  A
C300        C309   1.496       .  S
C301        C302   1.407       .  A
C301        H305   1.083       .  S
C302        C303   1.405       .  A
C302        C318   1.491       .  S
C303        H306   1.083       .  S
C307        C308   1.405       .  A
C307        C312   1.395       .  A
C307       C4803   1.485       .  S
C308        C309   1.412       .  A
C308        H313   1.083       .  S
C309        C310   1.411       .  A
C310        C311   1.409       .  A
C310        H314   1.082       .  S
C311        C312   1.398       .  A
C311       C4789   1.496       .  S
C312        H315   1.084       .  S
C316        C317   1.412       .  A
C316        C321   1.402       .  A
C316       C4876   1.508       .  S
C317        C318   1.411   1_556  A
C317        H322   1.082       .  S
C318        C319   1.409       .  A
C319        C320   1.403       .  A
C319        H323   1.083       .  S
C320        C321   1.395   1_554  A
C320       C4775   1.488       .  S
C321        H324   1.083       .  S
C325        C326   1.416       .  A
C325        C330   1.402       .  A
C325       C4764   1.509       .  S
C326        C327   1.415       .  A
C326        H331   1.082       .  S
C327        C328   1.410       .  A
C327        C336   1.491       .  S
C328        C329   1.398       .  A
C328        H332   1.083       .  S
C329        C330   1.392       .  A
C329       C4747   1.482       .  S
C330        H333   1.084       .  S
C334        C335   1.405       .  A
C334        C339   1.404       .  A
C334        C354   1.485       .  S
C335        C336   1.407       .  A
C335        H340   1.084       .  S
C336        C337   1.410       .  A
C337        C338   1.410       .  A
C337        H341   1.083       .  S
C338        C339   1.408       .  A
C338        C345   1.491       .  S
C339        H342   1.084       .  S
C343        C344   1.404       .  A
C343        C348   1.394       .  A
C343       C4733   1.485       .  S
C344        C345   1.413       .  A
C344        H349   1.083       .  S
C345        C346   1.414       .  A
C346        C347   1.407       .  A
C346        H350   1.083       .  S
C347        C348   1.395       .  A
C347       C4722   1.487       .  S
C348        H351   1.085       .  S
C352        C353   1.405       .  A
C352        C357   1.397       .  A
C352       C4705   1.502       .  S
C353        C354   1.411       .  A
C353        H358   1.083       .  S
C354        C355   1.414       .  A
C355        C356   1.408       .  A
C355        H359   1.083       .  S
C356        C357   1.398       .  A
C356       C4691   1.505       .  S
C357        H360   1.082       .  S
O361       Mg363   2.122       .  S
O361       Mg369   2.117       .  S
O361        C396   1.240       .  S
C362        H401   1.080       .  S
C362        O375   1.238       .  S
C362        O399   1.271       .  A
Mg363       O392   2.123       .  S
Mg363       O407   2.329       .  S
Mg363       O403   2.248       .  S
Mg363       O374   2.311       .  S
O364       Mg406   2.131       .  S
O364       Mg389   2.116       .  S
O364        C385   1.240       .  S
O365        C396   1.274       .  A
O365       Mg389   2.303       .  S
C366       C4663   1.491       .  S
C366        O368   1.271       .  A
C366        O380   1.277       .  A
O367        C395   1.274       .  A
O367       Mg369   2.308       .  S
O368       Mg400   2.251       .  S
Mg369       O375   2.108       .  S
Mg369       O383   2.224       .  S
Mg369       O371   2.309       .  S
C370       C4621   1.503       .  S
C370        O408   1.273       .  A
C370        O376   1.275       .  A
O371        C378   1.274       .  A
H372        C385   1.081       .  S
C373        H398   1.082       .  S
C373        O387   1.240       .  S
C373        O388   1.275       .  A
O374        C397   1.274       .  A
O375       Mg389   2.126       .  S
O376       Mg406   2.313       .  S
C377       C4607   1.482       .  S
C377        O390   1.273       .  A
C377        O382   1.276       .  A
C378       C4649   1.478       .  S
C378        O405   1.271       .  A
Mg379       O386   2.126       .  S
Mg379       O387   2.124       .  S
Mg379       O380   2.328       .  S
Mg379       O381   2.300       .  S
Mg379       O408   2.250       .  S
O381        C385   1.273       .  A
O382       Mg389   2.317       .  S
O383        C402   1.267       .  A
O384        C404   1.276       .  A
O384       Mg400   2.321       .  S
O386       Mg400   2.119       .  S
O386        C397   1.240       .  S
O387       Mg406   2.127       .  S
O388       Mg400   2.312       .  S
Mg389       O405   2.258       .  S
O390       Mg406   2.257       .  S
H391        C396   1.081       .  S
O392       Mg400   2.121       .  S
O392        C395   1.240       .  S
H393        C395   1.082       .  S
H394        C397   1.081       .  S
O399       Mg406   2.293       .  S
C402       C4635   1.510       .  S
C402        O407   1.276       .  A
O403        C404   1.271       .  A
C404       C4677   1.484       .  S
C409        C410   1.411       .  A
C409        C414   1.401       .  A
C409       C5030   1.502       .  S
C410        C411   1.413       .  A
C410        H415   1.083       .  S
C411        C412   1.408       .  A
C411        C420   1.491       .  S
C412        C413   1.399       .  A
C412        H416   1.083       .  S
C413        C414   1.393       .  A
C413       C4593   1.480       .  S
C414        H417   1.084       .  S
C418        C419   1.405       .  A
C418        C423   1.407       .  A
C418        C431   1.488       .  S
C419        C420   1.407       .  A
C419        H424   1.083       .  S
C420        C421   1.408       .  A
C421        C422   1.409       .  A
C421        H425   1.082       .  S
C422        C423   1.410       .  A
C422        C438   1.498       .  S
C423        H426   1.083       .  S
C427        C428   1.396       .  A
C427        C432   1.409       .  A
C427       C5268   1.495       .  S
C428        C429   1.391       .  A
C428        H433   1.085       .  S
C429        C430   1.403       .  A
C429       C4666   1.482       .  S
C430        C431   1.412       .  A
C430        H434   1.083       .  S
C431        C432   1.413       .  A
C432        H435   1.083       .  S
C436        C437   1.411       .  A
C436        C441   1.400       .  A
C436       C4565   1.502       .  S
C437        C438   1.413       .  A
C437        H442   1.081       .  S
C438        C439   1.411       .  A
C439        C440   1.403       .  A
C439        H443   1.083       .  S
C440        C441   1.396       .  A
C440       C4579   1.484       .  S
C441        H444   1.084       .  S
O445       Mg447   2.124       .  S
O445       Mg453   2.131       .  S
O445        C480   1.240       .  S
C446        H485   1.081       .  S
C446        O459   1.239       .  S
C446        O483   1.273       .  A
Mg447       O476   2.128       .  S
Mg447       O491   2.317       .  S
Mg447       O487   2.266       .  S
Mg447       O458   2.296       .  S
O448       Mg490   2.131       .  S
O448       Mg473   2.122       .  S
O448        C469   1.239       .  S
O449        C480   1.273       .  A
O449       Mg473   2.302       .  S
C450       C4495   1.497       .  S
C450        O452   1.273       .  A
C450        O464   1.274       .  A
O451        C479   1.272       .  A
O451       Mg453   2.297       .  S
O452       Mg484   2.271       .  S
Mg453       O459   2.118       .  S
Mg453       O467   2.257       .  S
Mg453       O455   2.310       .  S
C454       C4551   1.477       .  S
C454        O492   1.270       .  A
C454        O460   1.276       .  A
O455        C462   1.276       .  A
H456        C469   1.081       .  S
C457        H482   1.081       .  S
C457        O471   1.241       .  S
C457        O472   1.274       .  A
O458        C481   1.273       .  A
O459       Mg473   2.129       .  S
O460       Mg490   2.315       .  S
C461       C4509   1.485       .  S
C461        O474   1.273       .  A
C461        O466   1.275       .  A
C462       C4523   1.490       .  S
C462        O489   1.271       .  A
Mg463       O470   2.114       .  S
Mg463       O471   2.131       .  S
Mg463       O464   2.295       .  S
Mg463       O465   2.301       .  S
Mg463       O492   2.248       .  S
O465        C469   1.273       .  A
O466       Mg473   2.305       .  S
O467        C486   1.271       .  A
O468        C488   1.278       .  A
O468       Mg484   2.326       .  S
O470       Mg484   2.129       .  S
O470        C481   1.238       .  S
O471       Mg490   2.125       .  S
O472       Mg484   2.305       .  S
Mg473       O489   2.263       .  S
O474       Mg490   2.267       .  S
H475        C480   1.080       .  S
O476       Mg484   2.121       .  S
O476        C479   1.239       .  S
H477        C479   1.081       .  S
H478        C481   1.081       .  S
O483       Mg490   2.299       .  S
C486       C5338   1.478       .  S
C486        O491   1.276       .  A
O487        C488   1.272       .  A
C488       C4537   1.481       .  S
C493        C494   1.405       .  A
C493        C498   1.401       .  A
C493       C4467   1.499       .  S
C494        C495   1.407       .  A
C494        H499   1.083       .  S
C495        C496   1.409       .  A
C495        C504   1.483       .  S
C496        C497   1.408       .  A
C496        H500   1.082       .  S
C497        C498   1.401       .  A
C497       C4481   1.506       .  S
C498        H501   1.083       .  S
C502        C503   1.408       .  A
C502        C507   1.413       .  A
C502        C513   1.497       .  S
C503        C504   1.404       .  A
C503        H508   1.083       .  S
C504        C505   1.405       .  A
C505        C506   1.406       .  A
C505        H509   1.083       .  S
C506        C507   1.409       .  A
C506        C522   1.492       .  S
C507        H510   1.083       .  S
C511        C512   1.411       .  A
C511        C516   1.400       .  A
C511       C4456   1.501       .  S
C512        C513   1.414       .  A
C512        H517   1.082       .  S
C513        C514   1.409       .  A
C514        C515   1.401       .  A
C514        H518   1.083       .  S
C515        C516   1.398       .  A
C515       C4439   1.483       .  S
C516        H519   1.084       .  S
C520        C521   1.410       .  A
C520        C525   1.400       .  A
C520       C4411   1.501       .  S
C521        C522   1.414       .  A
C521        H526   1.083       .  S
C522        C523   1.410       .  A
C523        C524   1.403       .  A
C523        H527   1.083       .  S
C524        C525   1.396       .  A
C524       C4425   1.485       .  S
C525        H528   1.084       .  S
O529       Mg531   2.131       .  S
O529       Mg537   2.137       .  S
O529        C564   1.240       .  S
C530        H569   1.081       .  S
C530        O543   1.240       .  S
C530        O567   1.273       .  A
Mg531       O560   2.115       .  S
Mg531       O575   2.317       .  S
Mg531       O571   2.255       .  S
Mg531       O542   2.310       .  S
O532       Mg574   2.123       .  S
O532       Mg557   2.113       .  S
O532        C553   1.239       .  S
O533        C564   1.274       .  A
O533       Mg557   2.306       .  S
C534       C4383   1.479       .  S
C534        O536   1.272       .  A
C534        O548   1.275       .  A
O535        C563   1.272       .  A
O535       Mg537   2.301       .  S
O536       Mg568   2.263       .  S
Mg537       O543   2.120       .  S
Mg537       O551   2.250       .  S
Mg537       O539   2.330       .  S
C538       C5142   1.479       .  S
C538        O576   1.272       .  A
C538        O544   1.275       .  A
O539        C546   1.276       .  A
H540        C553   1.081       .  S
C541        H566   1.082       .  S
C541        O555   1.239       .  S
C541        O556   1.273       .  A
O542        C565   1.274       .  A
O543       Mg557   2.120       .  S
O544       Mg574   2.315       .  S
C545       C4750   1.484       .  S
C545        O558   1.271       .  A
C545        O550   1.276       .  A
C546       C4369   1.505       .  S
C546        O573   1.270       .  A
Mg547       O554   2.124       .  S
Mg547       O555   2.128       .  S
Mg547       O548   2.313       .  S
Mg547       O549   2.295       .  S
Mg547       O576   2.259       .  S
O549        C553   1.272       .  A
O550       Mg557   2.321       .  S
O551        C570   1.271       .  A
O552        C572   1.277       .  A
O552       Mg568   2.329       .  S
O554       Mg568   2.120       .  S
O554        C565   1.240       .  S
O555       Mg574   2.114       .  S
O556       Mg568   2.297       .  S
Mg557       O573   2.228       .  S
O558       Mg574   2.248       .  S
H559        C564   1.082       .  S
O560       Mg568   2.125       .  S
O560        C563   1.238       .  S
H561        C563   1.082       .  S
H562        C565   1.081       .  S
O567       Mg574   2.306       .  S
C570       C4397   1.478       .  S
C570        O575   1.275       .  A
O571        C572   1.271       .  A
C572       C4428   1.496       .  S
O577       Mg579   2.114       .  S
O577       Mg585   2.129       .  S
O577        C612   1.239       .  S
C578        H617   1.081       .  S
C578        O591   1.240       .  S
C578        O615   1.274       .  A
Mg579       O608   2.132       .  S
Mg579       O623   2.303       .  S
Mg579       O619   2.252       .  S
Mg579       O590   2.297       .  S
O580       Mg622   2.131       .  S
O580       Mg605   2.123   1_554  S
O580        C601   1.239       .  S
O581        C612   1.273   1_556  A
O581       Mg605   2.298       .  S
C582       C4453   1.480       .  S
C582        O584   1.272       .  A
C582        O596   1.276       .  A
O583        C611   1.274       .  A
O583       Mg585   2.302       .  S
O584       Mg616   2.260       .  S
Mg585       O591   2.121       .  S
Mg585       O599   2.262       .  S
Mg585       O587   2.316   1_554  S
C586       C4792   1.480       .  S
C586        O624   1.271       .  A
C586        O592   1.277       .  A
O587        C594   1.276       .  A
H588        C601   1.081       .  S
C589        H614   1.081       .  S
C589        O603   1.239       .  S
C589        O604   1.272       .  A
O590        C613   1.272       .  A
O591       Mg605   2.128   1_554  S
O592       Mg622   2.325       .  S
C593       C5100   1.504       .  S
C593        O606   1.273       .  A
C593        O598   1.277       .  A
C594       C4327   1.488       .  S
C594        O621   1.274       .  A
Mg595       O602   2.112       .  S
Mg595       O603   2.127       .  S
Mg595       O596   2.317       .  S
Mg595       O597   2.301       .  S
Mg595       O624   2.253       .  S
O597        C601   1.273       .  A
O598       Mg605   2.306   1_554  S
O599        C618   1.272       .  A
O600        C620   1.276       .  A
O600       Mg616   2.315       .  S
O602       Mg616   2.129       .  S
O602        C613   1.239       .  S
O603       Mg622   2.122       .  S
O604       Mg616   2.299       .  S
Mg605       O621   2.280       .  S
O606       Mg622   2.256       .  S
H607        C612   1.081   1_556  S
O608       Mg616   2.119       .  S
O608        C611   1.240       .  S
H609        C611   1.081       .  S
H610        C613   1.080       .  S
O615       Mg622   2.304       .  S
C618       C4344   1.495       .  S
C618        O623   1.275       .  A
O619        C620   1.271       .  A
C620       C4358   1.479       .  S
C625        C626   1.408       .  A
C625        C630   1.395       .  A
C625       C4610   1.489       .  S
C626        C627   1.414   1_455  A
C626        H631   1.083       .  S
C627        C628   1.413       .  A
C627        C636   1.498       .  S
C628        C629   1.404       .  A
C628        H632   1.083       .  S
C629        C630   1.393   1_655  A
C629       C4313   1.482       .  S
C630        H633   1.085       .  S
C634        C635   1.407       .  A
C634        C639   1.404       .  A
C634        C654   1.488       .  S
C635        C636   1.410       .  A
C635        H640   1.083       .  S
C636        C637   1.411       .  A
C637        C638   1.411       .  A
C637        H641   1.082       .  S
C638        C639   1.408       .  A
C638        C647   1.497       .  S
C639        H642   1.083       .  S
C643        C644   1.395       .  A
C643        C648   1.403       .  A
C643       C4526   1.484       .  S
C644        C645   1.400       .  A
C644        H649   1.084       .  S
C645        C646   1.410       .  A
C645       C4299   1.499       .  S
C646        C647   1.411       .  A
C646        H650   1.082       .  S
C647        C648   1.412       .  A
C648        H651   1.083       .  S
C652        C653   1.412       .  A
C652        C657   1.399       .  A
C652       C4285   1.505       .  S
C653        C654   1.416       .  A
C653        H658   1.082       .  S
C654        C655   1.409       .  A
C655        C656   1.401       .  A
C655        H659   1.083       .  S
C656        C657   1.393       .  A
C656       C4271   1.488       .  S
C657        H660   1.084       .  S
O661       Mg663   2.122       .  S
O661       Mg669   2.122       .  S
O661        C696   1.239       .  S
C662        H701   1.081   1_655  S
C662        O675   1.240       .  S
C662        O699   1.274   1_655  A
Mg663       O692   2.128       .  S
Mg663       O707   2.322       .  S
Mg663       O703   2.253       .  S
Mg663       O674   2.308   1_545  S
O664       Mg706   2.123   1_655  S
O664       Mg689   2.120       .  S
O664        C685   1.240       .  S
O665        C696   1.273   1_565  A
O665       Mg689   2.302       .  S
C666       C4257   1.487       .  S
C666        O668   1.274       .  A
C666        O680   1.277       .  A
O667        C695   1.274       .  A
O667       Mg669   2.306       .  S
O668       Mg700   2.280   1_565  S
Mg669       O675   2.122       .  S
Mg669       O683   2.264       .  S
Mg669       O671   2.321       .  S
C670       C4316   1.487       .  S
C670        O708   1.272       .  A
C670        O676   1.276       .  A
O671        C678   1.276       .  A
H672        C685   1.082       .  S
C673        H698   1.082       .  S
C673        O687   1.238       .  S
C673        O688   1.273   1_565  A
O674        C697   1.274       .  A
O675       Mg689   2.126   1_545  S
O676       Mg706   2.314   1_655  S
C677       C4201   1.489       .  S
C677        O690   1.271       .  A
C677        O682   1.276       .  A
C678       C4243   1.479       .  S
C678        O705   1.271       .  A
Mg679       O686   2.129       .  S
Mg679       O687   2.123       .  S
Mg679       O680   2.328       .  S
Mg679       O681   2.304       .  S
Mg679       O708   2.270       .  S
O681        C685   1.274       .  A
O682       Mg689   2.317   1_455  S
O683        C702   1.271       .  A
O684        C704   1.278       .  A
O684       Mg700   2.325       .  S
O686       Mg700   2.124   1_565  S
O686        C697   1.240       .  S
O687       Mg706   2.122   1_655  S
O688       Mg700   2.304       .  S
Mg689       O705   2.260   1_565  S
O690       Mg706   2.263       .  S
H691        C696   1.082       .  S
O692       Mg700   2.126       .  S
O692        C695   1.239       .  S
H693        C695   1.082       .  S
H694        C697   1.081       .  S
O699       Mg706   2.304   1_545  S
C702       C4229   1.485       .  S
C702        O707   1.276       .  A
O703        C704   1.270       .  A
C704       C4215   1.517       .  S
C709        C710   1.410       .  A
C709        C714   1.400       .  A
C709       C4218   1.502       .  S
C710        C711   1.413   1_545  A
C710        H715   1.083       .  S
C711        C712   1.412       .  A
C711        C722   1.495       .  S
C712        C713   1.404       .  A
C712        H716   1.083       .  S
C713        C714   1.395   1_565  A
C713       C4187   1.489       .  S
C714        H717   1.084       .  S
C718        C719   1.414   1_545  A
C718        C723   1.411       .  A
C718        C729   1.504       .  S
C719        C720   1.412       .  A
C719        H724   1.081       .  S
C720        C721   1.410       .  A
C720        C738   1.502       .  S
C721        C722   1.406       .  A
C721        H725   1.082       .  S
C722        C723   1.407   1_565  A
C723        H726   1.082       .  S
C727        C728   1.410       .  A
C727        C732   1.400       .  A
C727       C4173   1.501       .  S
C728        C729   1.414       .  A
C728        H733   1.082       .  S
C729        C730   1.411       .  A
C730        C731   1.410       .  A
C730        H734   1.082       .  S
C731        C732   1.401       .  A
C731       C4162   1.501       .  S
C732        H735   1.083       .  S
C736        C737   1.405       .  A
C736        C741   1.395       .  A
C736       C4540   1.490       .  S
C737        C738   1.412       .  A
C737        H742   1.083       .  S
C738        C739   1.414       .  A
C739        C740   1.412       .  A
C739        H743   1.082       .  S
C740        C741   1.399       .  A
C740       C4145   1.497       .  S
C741        H744   1.084       .  S
O745       Mg747   2.133       .  S
O745       Mg753   2.126       .  S
O745        C780   1.239       .  S
C746        H785   1.080       .  S
C746        O759   1.240       .  S
C746        O783   1.274       .  A
Mg747       O776   2.106       .  S
Mg747       O791   2.313       .  S
Mg747       O787   2.250       .  S
Mg747       O758   2.317   1_545  S
O748       Mg790   2.120       .  S
O748       Mg773   2.120       .  S
O748        C769   1.240       .  S
O749        C780   1.274   1_565  A
O749       Mg773   2.308       .  S
C750       C5184   1.481       .  S
C750        O752   1.272   1_565  A
C750        O764   1.275       .  A
O751        C779   1.274       .  A
O751       Mg753   2.314       .  S
O752       Mg784   2.255       .  S
Mg753       O759   2.119       .  S
Mg753       O767   2.251       .  S
Mg753       O755   2.317       .  S
C754       C4103   1.489       .  S
C754        O792   1.271       .  A
C754        O760   1.276       .  A
O755        C762   1.275       .  A
H756        C769   1.082       .  S
C757        H782   1.082       .  S
C757        O771   1.239       .  S
C757        O772   1.273   1_565  A
O758        C781   1.276       .  A
O759       Mg773   2.128   1_545  S
O760       Mg790   2.324       .  S
C761       C4148   1.483       .  S
C761        O774   1.272       .  A
C761        O766   1.276       .  A
C762       C4089   1.481       .  S
C762        O789   1.271   1_545  A
Mg763       O770   2.124       .  S
Mg763       O771   2.118       .  S
Mg763       O764   2.318       .  S
Mg763       O765   2.307       .  S
Mg763       O792   2.247       .  S
O765        C769   1.274       .  A
O766       Mg773   2.326       .  S
O767        C786   1.270       .  A
O768        C788   1.275       .  A
O768       Mg784   2.328       .  S
O770       Mg784   2.124   1_565  S
O770        C781   1.241       .  S
O771       Mg790   2.124       .  S
O772       Mg784   2.303       .  S
Mg773       O789   2.254       .  S
O774       Mg790   2.261       .  S
H775        C780   1.083       .  S
O776       Mg784   2.129       .  S
O776        C779   1.239       .  S
H777        C779   1.083       .  S
H778        C781   1.081       .  S
O783       Mg790   2.298   1_545  S
C786       C4117   1.489       .  S
C786        O791   1.274       .  A
O787        C788   1.269       .  A
C788       C4131   1.499       .  S
O793       Mg795   2.120       .  S
O793       Mg801   2.130   1_565  S
O793        C828   1.240       .  S
C794        H833   1.082       .  S
C794        O807   1.239       .  S
C794        O831   1.272       .  A
Mg795       O824   2.133       .  S
Mg795       O839   2.317       .  S
Mg795       O835   2.255       .  S
Mg795       O806   2.303       .  S
O796       Mg838   2.133       .  S
O796       Mg821   2.118       .  S
O796        C817   1.239       .  S
O797        C828   1.273       .  A
O797       Mg821   2.298   1_565  S
C798       C4075   1.484       .  S
C798        O800   1.273       .  A
C798        O812   1.276       .  A
O799        C827   1.273   1_545  A
O799       Mg801   2.297       .  S
O800       Mg832   2.270       .  S
Mg801       O807   2.117       .  S
Mg801       O815   2.268   1_545  S
Mg801       O803   2.298       .  S
C802       C5198   1.481       .  S
C802        O840   1.271       .  A
C802        O808   1.277       .  A
O803        C810   1.275       .  A
H804        C817   1.082   1_556  S
C805        H830   1.080       .  S
C805        O819   1.238       .  S
C805        O820   1.273       .  A
O806        C829   1.273       .  A
O807       Mg821   2.138       .  S
O808       Mg838   2.326   1_556  S
C809       C5083   1.503       .  S
C809        O822   1.273       .  A
C809        O814   1.275       .  A
C810       C4061   1.497       .  S
C810        O837   1.273       .  A
Mg811       O818   2.121       .  S
Mg811       O819   2.126   1_565  S
Mg811       O812   2.317       .  S
Mg811       O813   2.299   1_554  S
Mg811       O840   2.259   1_564  S
O813        C817   1.273   1_566  A
O814       Mg821   2.302       .  S
O815        C834   1.272       .  A
O816        C836   1.276       .  A
O816       Mg832   2.307       .  S
O818       Mg832   2.127       .  S
O818        C829   1.240       .  S
O819       Mg838   2.119       .  S
O820       Mg832   2.301   1_545  S
Mg821       O837   2.260       .  S
O822       Mg838   2.259       .  S
H823        C828   1.080       .  S
O824       Mg832   2.115       .  S
O824        C827   1.239       .  S
H825        C827   1.081       .  S
H826        C829   1.082       .  S
O831       Mg838   2.300       .  S
C834       C4050   1.484       .  S
C834        O839   1.276       .  A
O835        C836   1.271       .  A
C836       C4033   1.505       .  S
O841       Mg843   2.117       .  S
O841       Mg849   2.132       .  S
O841        C876   1.240       .  S
C842        H881   1.080   1_554  S
C842        O855   1.240       .  S
C842        O879   1.273   1_554  A
Mg843       O872   2.134       .  S
Mg843       O887   2.316       .  S
Mg843       O883   2.254       .  S
Mg843       O854   2.301       .  S
O844       Mg886   2.129   1_554  S
O844       Mg869   2.121       .  S
O844        C865   1.240       .  S
O845        C876   1.273       .  A
O845       Mg869   2.301       .  S
C846       C4019   1.497       .  S
C846        O848   1.273       .  A
C846        O860   1.277       .  A
O847        C875   1.272       .  A
O847       Mg849   2.300       .  S
O848       Mg880   2.262       .  S
Mg849       O855   2.112       .  S
Mg849       O863   2.249       .  S
Mg849       O851   2.306       .  S
C850       C4778   1.493       .  S
C850        O888   1.273       .  A
C850        O856   1.276       .  A
O851        C858   1.275       .  A
H852        C865   1.081       .  S
C853        H878   1.081       .  S
C853        O867   1.240       .  S
C853        O868   1.273       .  A
O854        C877   1.273       .  A
O855       Mg869   2.132       .  S
O856       Mg886   2.309   1_554  S
C857       C5352   1.487       .  S
C857        O870   1.272       .  A
C857        O862   1.275       .  A
C858       C3991   1.498       .  S
C858        O885   1.272       .  A
Mg859       O866   2.119       .  S
Mg859       O867   2.130       .  S
Mg859       O860   2.314       .  S
Mg859       O861   2.301       .  S
Mg859       O888   2.265       .  S
O861        C865   1.273       .  A
O862       Mg869   2.305   1_556  S
O863        C882   1.271       .  A
O864        C884   1.275       .  A
O864       Mg880   2.301       .  S
O866       Mg880   2.133       .  S
O866        C877   1.240       .  S
O867       Mg886   2.118   1_554  S
O868       Mg880   2.300       .  S
Mg869       O885   2.262       .  S
O870       Mg886   2.262       .  S
H871        C876   1.081       .  S
O872       Mg880   2.121       .  S
O872        C875   1.239       .  S
H873        C875   1.081       .  S
H874        C877   1.081       .  S
O879       Mg886   2.299       .  S
C882       C4008   1.479       .  S
C882        O887   1.276       .  A
O883        C884   1.272       .  A
C884       C3977   1.494       .  S
C889        C890   1.404       .  A
C889        C894   1.393       .  A
C889       C4341   1.486       .  S
C890        C891   1.412       .  A
C890        H895   1.083       .  S
C891        C892   1.414       .  A
C891        C900   1.491       .  S
C892        C893   1.407       .  A
C892        H896   1.083       .  S
C893        C894   1.397       .  A
C893       C3963   1.493       .  S
C894        H897   1.085       .  S
C898        C899   1.410       .  A
C898        C903   1.410       .  A
C898        C909   1.499       .  S
C899        C900   1.406   1_565  A
C899        H904   1.083       .  S
C900        C901   1.407       .  A
C901        C902   1.408   1_545  A
C901        H905   1.083       .  S
C902        C903   1.410       .  A
C902        C920   1.495       .  S
C903        H906   1.082       .  S
C907        C908   1.402       .  A
C907        C912   1.397       .  A
C907       C3949   1.485       .  S
C908        C909   1.411       .  A
C908        H913   1.083       .  S
C909        C910   1.413       .  A
C910        C911   1.413       .  A
C910        H914   1.081       .  S
C911        C912   1.401       .  A
C911       C4005   1.505       .  S
C912        H915   1.083       .  S
C916        C917   1.399   1_545  A
C916        C921   1.412       .  A
C916       C3935   1.500       .  S
C917        C918   1.393   1_556  A
C917        H922   1.085   1_565  S
C918        C919   1.400       .  A
C918       C4078   1.480       .  S
C919        C920   1.410       .  A
C919        H923   1.083       .  S
C920        C921   1.415   1_564  A
C921        H924   1.083       .  S
O925       Mg927   2.118       .  S
O925       Mg933   2.138   1_545  S
O925        C960   1.240       .  S
C926        H965   1.082       .  S
C926        O939   1.239       .  S
C926        O963   1.274       .  A
Mg927       O956   2.137       .  S
Mg927       O971   2.296       .  S
Mg927       O967   2.265       .  S
Mg927       O938   2.290       .  S
O928       Mg970   2.125       .  S
O928       Mg953   2.124       .  S
O928        C949   1.239       .  S
O929        C960   1.273       .  A
O929       Mg953   2.301   1_545  S
C930       C3938   1.512       .  S
C930        O932   1.273       .  A
C930        O944   1.276       .  A
O931        C959   1.273   1_565  A
O931       Mg933   2.299       .  S
O932       Mg964   2.269       .  S
Mg933       O939   2.119       .  S
Mg933       O947   2.259   1_565  S
Mg933       O935   2.305       .  S
C934       C5156   1.478       .  S
C934        O972   1.271       .  A
C934        O940   1.276       .  A
O935        C942   1.276       .  A
H936        C949   1.082       .  S
C937        H962   1.081       .  S
C937        O951   1.240       .  S
C937        O952   1.274       .  A
O938        C961   1.271       .  A
O939       Mg953   2.131       .  S
O940       Mg970   2.321       .  S
C941       C5324   1.482       .  S
C941        O954   1.272       .  A
C941        O946   1.277       .  A
C942       C4190   1.498       .  S
C942        O969   1.274       .  A
Mg943       O950   2.105       .  S
Mg943       O951   2.130   1_545  S
Mg943       O944   2.306       .  S
Mg943       O945   2.301       .  S
Mg943       O972   2.255   1_545  S
O945        C949   1.273   1_545  A
O946       Mg953   2.326       .  S
O947        C966   1.272       .  A
O948        C968   1.277       .  A
O948       Mg964   2.321       .  S
O950       Mg964   2.130       .  S
O950        C961   1.238       .  S
O951       Mg970   2.128       .  S
O952       Mg964   2.304   1_565  S
Mg953       O969   2.269       .  S
O954       Mg970   2.268       .  S
H955        C960   1.081       .  S
O956       Mg964   2.123       .  S
O956        C959   1.240       .  S
H957        C959   1.082       .  S
H958        C961   1.082       .  S
O963       Mg970   2.301       .  S
C966       C3921   1.504       .  S
C966        O971   1.275       .  A
O967        C968   1.272       .  A
C968       C3907   1.479       .  S
C973        C974   1.397       .  A
C973        C978   1.390   1_565  A
C973       C5013   1.478       .  S
C974        C975   1.409   1_455  A
C974        H979   1.083       .  S
C975        C976   1.415   1_565  A
C975        C984   1.490       .  S
C976        C977   1.415   1_655  A
C976        H980   1.082       .  S
C977        C978   1.400       .  A
C977       C3893   1.506   1_455  S
C978        H981   1.084       .  S
C982        C983   1.408       .  A
C982        C987   1.409   1_545  A
C982        C993   1.492       .  S
C983        C984   1.407   1_545  A
C983        H988   1.083       .  S
C984        C985   1.407       .  A
C985        C986   1.407       .  A
C985        H989   1.083       .  S
C986        C987   1.407       .  A
C986       C1004   1.493       .  S
C987        H990   1.083       .  S
C991        C992   1.406       .  A
C991        C996   1.397       .  A
C991       C3924   1.492       .  S
C992        C993   1.411       .  A
C992        H997   1.083       .  S
C993        C994   1.413       .  A
C994        C995   1.404       .  A
C994        H998   1.083       .  S
C995        C996   1.394       .  A
C995       C3879   1.483       .  S
C996        H999   1.085       .  S
C1000      C1001   1.398       .  A
C1000      C1005   1.406       .  A
C1000      C3865   1.493       .  S
C1001      C1002   1.395       .  A
C1001      H1006   1.085       .  S
C1002      C1003   1.404       .  A
C1002      C4260   1.484       .  S
C1003      C1004   1.413       .  A
C1003      H1007   1.083       .  S
C1004      C1005   1.412       .  A
C1005      H1008   1.083       .  S
O1009     Mg1011   2.112       .  S
O1009     Mg1017   2.137       .  S
O1009      C1044   1.237       .  S
C1010      H1049   1.082       .  S
C1010      O1023   1.240       .  S
C1010      O1047   1.273       .  A
Mg1011     O1040   2.141       .  S
Mg1011     O1055   2.293       .  S
Mg1011     O1051   2.254       .  S
Mg1011     O1022   2.298       .  S
O1012     Mg1054   2.135       .  S
O1012     Mg1037   2.106       .  S
O1012      C1033   1.239       .  S
O1013      C1044   1.270       .  A
O1013     Mg1037   2.294       .  S
C1014      C3851   1.494       .  S
C1014      O1016   1.274       .  A
C1014      O1028   1.277       .  A
O1015      C1043   1.273       .  A
O1015     Mg1017   2.300       .  S
O1016     Mg1048   2.272       .  S
Mg1017     O1023   2.120       .  S
Mg1017     O1031   2.263       .  S
Mg1017     O1019   2.316       .  S
C1018      C4596   1.483       .  S
C1018      O1056   1.273       .  A
C1018      O1024   1.275       .  A
O1019      C1026   1.276       .  A
H1020      C1033   1.081   1_455  S
C1021      H1046   1.081       .  S
C1021      O1035   1.239       .  S
C1021      O1036   1.272       .  A
O1022      C1045   1.272       .  A
O1023     Mg1037   2.137       .  S
O1024     Mg1054   2.308   1_455  S
C1025      C3868   1.505       .  S
C1025      O1038   1.272       .  A
C1025      O1030   1.273       .  A
C1026      C4302   1.477       .  S
C1026      O1053   1.270       .  A
Mg1027     O1034   2.118       .  S
Mg1027     O1035   2.131       .  S
Mg1027     O1028   2.307       .  S
Mg1027     O1029   2.295   1_655  S
Mg1027     O1056   2.272   1_655  S
O1029      C1033   1.272   1_455  A
O1030     Mg1037   2.289       .  S
O1031      C1050   1.273       .  A
O1032      C1052   1.277       .  A
O1032     Mg1048   2.305       .  S
O1034     Mg1048   2.136       .  S
O1034      C1045   1.239       .  S
O1035     Mg1054   2.122       .  S
O1036     Mg1048   2.299       .  S
Mg1037     O1053   2.245       .  S
O1038     Mg1054   2.265       .  S
H1039      C1044   1.081       .  S
O1040     Mg1048   2.125       .  S
O1040      C1043   1.240       .  S
H1041      C1043   1.081       .  S
H1042      C1045   1.082       .  S
O1047     Mg1054   2.301       .  S
C1050      C5296   1.497       .  S
C1050      O1055   1.275       .  A
O1051      C1052   1.272       .  A
C1052      C3837   1.497       .  S
C1057      C1058   1.408       .  A
C1057      C1062   1.396       .  A
C1057      C3823   1.496       .  S
C1058      C1059   1.413       .  A
C1058      H1063   1.083       .  S
C1059      C1060   1.410       .  A
C1059      C1068   1.486       .  S
C1060      C1061   1.402       .  A
C1060      H1064   1.083       .  S
C1061      C1062   1.393       .  A
C1061      C3812   1.487       .  S
C1062      H1065   1.085       .  S
C1066      C1067   1.408       .  A
C1066      C1071   1.411       .  A
C1066      C1077   1.498       .  S
C1067      C1068   1.407       .  A
C1067      H1072   1.083       .  S
C1068      C1069   1.406       .  A
C1069      C1070   1.406       .  A
C1069      H1073   1.084       .  S
C1070      C1071   1.410       .  A
C1070      C1086   1.494       .  S
C1071      H1074   1.083       .  S
C1075      C1076   1.403       .  A
C1075      C1080   1.398   1_655  A
C1075      C3854   1.487       .  S
C1076      C1077   1.410   1_556  A
C1076      H1081   1.083       .  S
C1077      C1078   1.414   1_655  A
C1078      C1079   1.412   1_554  A
C1078      H1082   1.082       .  S
C1079      C1080   1.401       .  A
C1079      C3798   1.503   1_556  S
C1080      H1083   1.084       .  S
C1084      C1085   1.406       .  A
C1084      C1089   1.394       .  A
C1084      C4022   1.489       .  S
C1085      C1086   1.414       .  A
C1085      H1090   1.083       .  S
C1086      C1087   1.412       .  A
C1087      C1088   1.406       .  A
C1087      H1091   1.083       .  S
C1088      C1089   1.396       .  A
C1088      C3781   1.490       .  S
C1089      H1092   1.085       .  S
O1093     Mg1095   2.120       .  S
O1093     Mg1101   2.113       .  S
O1093      C1128   1.239       .  S
C1094      H1133   1.084       .  S
C1094      O1107   1.239       .  S
C1094      O1131   1.274   1_565  A
Mg1095     O1124   2.125   1_565  S
Mg1095     O1139   2.322   1_655  S
Mg1095     O1135   2.234   1_654  S
Mg1095     O1106   2.297   1_554  S
O1096     Mg1138   2.122   1_565  S
O1096     Mg1121   2.121       .  S
O1096      C1117   1.240       .  S
O1097      C1128   1.274       .  A
O1097     Mg1121   2.318       .  S
C1098      C3753   1.474       .  S
C1098      O1100   1.271   1_554  A
C1098      O1112   1.273       .  A
O1099      C1127   1.274   1_565  A
O1099     Mg1101   2.307   1_455  S
O1100     Mg1132   2.248   1_556  S
Mg1101     O1107   2.136       .  S
Mg1101     O1115   2.255   1_655  S
Mg1101     O1103   2.319       .  S
C1102      C3966   1.515       .  S
C1102      O1140   1.268       .  A
C1102      O1108   1.277       .  A
O1103      C1110   1.273       .  A
H1104      C1117   1.081       .  S
C1105      H1130   1.081       .  S
C1105      O1119   1.238       .  S
C1105      O1120   1.271       .  A
O1106      C1129   1.272   1_565  A
O1107     Mg1121   2.113       .  S
O1108     Mg1138   2.336       .  S
C1109      C3767   1.478       .  S
C1109      O1122   1.271   1_565  A
C1109      O1114   1.274       .  A
C1110      C3809   1.504       .  S
C1110      O1137   1.267       .  A
Mg1111     O1118   2.122       .  S
Mg1111     O1119   2.111       .  S
Mg1111     O1112   2.301       .  S
Mg1111     O1113   2.311       .  S
Mg1111     O1140   2.242       .  S
O1113      C1117   1.274   1_545  A
O1114     Mg1121   2.313       .  S
O1115      C1134   1.271       .  A
O1116      C1136   1.275       .  A
O1116     Mg1132   2.318   1_556  S
O1118     Mg1132   2.140       .  S
O1118      C1129   1.238   1_554  S
O1119     Mg1138   2.118       .  S
O1120     Mg1132   2.295       .  S
Mg1121     O1137   2.248       .  S
O1122     Mg1138   2.256       .  S
H1123      C1128   1.083       .  S
O1124     Mg1132   2.121       .  S
O1124      C1127   1.240   1_655  S
H1125      C1127   1.081       .  S
H1126      C1129   1.082       .  S
O1131     Mg1138   2.313       .  S
C1134      C3739   1.490       .  S
C1134      O1139   1.275       .  A
O1135      C1136   1.272   1_465  A
C1136      C3896   1.497       .  S
O1141     Mg1143   2.118       .  S
O1141     Mg1149   2.129   1_655  S
O1141      C1176   1.240       .  S
C1142      H1181   1.082       .  S
C1142      O1155   1.239       .  S
C1142      O1179   1.272       .  A
Mg1143     O1172   2.125       .  S
Mg1143     O1187   2.330   1_655  S
Mg1143     O1183   2.259   1_554  S
Mg1143     O1154   2.307   1_554  S
O1144     Mg1186   2.127       .  S
O1144     Mg1169   2.123       .  S
O1144      C1165   1.239       .  S
O1145      C1176   1.273       .  A
O1145     Mg1169   2.299       .  S
C1146      C3784   1.503       .  S
C1146      O1148   1.271       .  A
C1146      O1160   1.275       .  A
O1147      C1175   1.273   1_455  A
O1147     Mg1149   2.297       .  S
O1148     Mg1180   2.256       .  S
Mg1149     O1155   2.115   1_455  S
Mg1149     O1163   2.270       .  S
Mg1149     O1151   2.304   1_455  S
C1150      C4817   1.512       .  S
C1150      O1188   1.270       .  A
C1150      O1156   1.278       .  A
O1151      C1158   1.276       .  A
H1152      C1165   1.081       .  S
C1153      H1178   1.082       .  S
C1153      O1167   1.239       .  S
C1153      O1168   1.273       .  A
O1154      C1177   1.274   1_556  A
O1155     Mg1169   2.135       .  S
O1156     Mg1186   2.314       .  S
C1157      C4988   1.490       .  S
C1157      O1170   1.275       .  A
C1157      O1162   1.275       .  A
C1158      C3725   1.504       .  S
C1158      O1185   1.271       .  A
Mg1159     O1166   2.123       .  S
Mg1159     O1167   2.135       .  S
Mg1159     O1160   2.301       .  S
Mg1159     O1161   2.304       .  S
Mg1159     O1188   2.256       .  S
O1161      C1165   1.273       .  A
O1162     Mg1169   2.311       .  S
O1163      C1182   1.273       .  A
O1164      C1184   1.275       .  A
O1164     Mg1180   2.311   1_556  S
O1166     Mg1180   2.138       .  S
O1166      C1177   1.241       .  S
O1167     Mg1186   2.129       .  S
O1168     Mg1180   2.305       .  S
Mg1169     O1185   2.253       .  S
O1170     Mg1186   2.288       .  S
H1171      C1176   1.082       .  S
O1172     Mg1180   2.113       .  S
O1172      C1175   1.238       .  S
H1173      C1175   1.080   1_455  S
H1174      C1177   1.082   1_556  S
O1179     Mg1186   2.296       .  S
C1182      C3711   1.484       .  S
C1182      O1187   1.278       .  A
O1183      C1184   1.272       .  A
C1184      C3697   1.482       .  S
C1189      C1190   1.399       .  A
C1189      C1194   1.399       .  A
C1189      C3840   1.486       .  S
C1190      C1191   1.403       .  A
C1190      H1195   1.083       .  S
C1191      C1192   1.416       .  A
C1191      C3700   1.512       .  S
C1192      C1193   1.415       .  A
C1192      H1196   1.081       .  S
C1193      C1194   1.408       .  A
C1193      C1200   1.498       .  S
C1194      H1197   1.083       .  S
C1198      C1199   1.411       .  A
C1198      C1203   1.408       .  A
C1198      C1209   1.494       .  S
C1199      C1200   1.408       .  A
C1199      H1204   1.082       .  S
C1200      C1201   1.410       .  A
C1201      C1202   1.407       .  A
C1201      H1205   1.083       .  S
C1202      C1203   1.407       .  A
C1202      C1218   1.495       .  S
C1203      H1206   1.083       .  S
C1207      C1208   1.402       .  A
C1207      C1212   1.393       .  A
C1207      C3683   1.480       .  S
C1208      C1209   1.411   1_455  A
C1208      H1213   1.083       .  S
C1209      C1210   1.414       .  A
C1210      C1211   1.406   1_655  A
C1210      H1214   1.083       .  S
C1211      C1212   1.394       .  A
C1211      C3672   1.486   1_455  S
C1212      H1215   1.085       .  S
C1216      C1217   1.403       .  A
C1216      C1221   1.394       .  A
C1216      C4904   1.482       .  S
C1217      C1218   1.412       .  A
C1217      H1222   1.083       .  S
C1218      C1219   1.413       .  A
C1219      C1220   1.408       .  A
C1219      H1223   1.083       .  S
C1220      C1221   1.396       .  A
C1220      C3655   1.491       .  S
C1221      H1224   1.085       .  S
O1225     Mg1227   2.122       .  S
O1225     Mg1233   2.123       .  S
O1225      C1260   1.240       .  S
C1226      H1265   1.082       .  S
C1226      O1239   1.240       .  S
C1226      O1263   1.273       .  A
Mg1227     O1256   2.119       .  S
Mg1227     O1271   2.305   1_655  S
Mg1227     O1267   2.241   1_655  S
Mg1227     O1238   2.308       .  S
O1228     Mg1270   2.132       .  S
O1228     Mg1253   2.127       .  S
O1228      C1249   1.239       .  S
O1229      C1260   1.274       .  A
O1229     Mg1253   2.313       .  S
C1230      C4288   1.505       .  S
C1230      O1232   1.273       .  A
C1230      O1244   1.277       .  A
O1231      C1259   1.274       .  A
O1231     Mg1233   2.304   1_455  S
O1232     Mg1264   2.243       .  S
Mg1233     O1239   2.123       .  S
Mg1233     O1247   2.262   1_655  S
Mg1233     O1235   2.333       .  S
C1234      C3627   1.480       .  S
C1234      O1272   1.272       .  A
C1234      O1240   1.276       .  A
O1235      C1242   1.277       .  A
H1236      C1249   1.080       .  S
C1237      H1262   1.082       .  S
C1237      O1251   1.240       .  S
C1237      O1252   1.273       .  A
O1238      C1261   1.274       .  A
O1239     Mg1253   2.112       .  S
O1240     Mg1270   2.326       .  S
C1241      C3658   1.479       .  S
C1241      O1254   1.272       .  A
C1241      O1246   1.274       .  A
C1242      C3613   1.501       .  S
C1242      O1269   1.271       .  A
Mg1243     O1250   2.120       .  S
Mg1243     O1251   2.126       .  S
Mg1243     O1244   2.332       .  S
Mg1243     O1245   2.300       .  S
Mg1243     O1272   2.257       .  S
O1245      C1249   1.273       .  A
O1246     Mg1253   2.311       .  S
O1247      C1266   1.271       .  A
O1248      C1268   1.277       .  A
O1248     Mg1264   2.332       .  S
O1250     Mg1264   2.120       .  S
O1250      C1261   1.240       .  S
O1251     Mg1270   2.124       .  S
O1252     Mg1264   2.302       .  S
Mg1253     O1269   2.256       .  S
O1254     Mg1270   2.257       .  S
H1255      C1260   1.083       .  S
O1256     Mg1264   2.125       .  S
O1256      C1259   1.239   1_655  S
H1257      C1259   1.081       .  S
H1258      C1261   1.083       .  S
O1263     Mg1270   2.303       .  S
C1266      C3641   1.479       .  S
C1266      O1271   1.273       .  A
O1267      C1268   1.269   1_455  A
C1268      C4943   1.488       .  S
C1273      C1274   1.397       .  A
C1273      C1278   1.406       .  A
C1273      C4036   1.492       .  S
C1274      C1275   1.395       .  A
C1274      H1279   1.085       .  S
C1275      C1276   1.406       .  A
C1275      C3994   1.489       .  S
C1276      C1277   1.413       .  A
C1276      H1280   1.083       .  S
C1277      C1278   1.412       .  A
C1277      C1284   1.493       .  S
C1278      H1281   1.083       .  S
C1282      C1283   1.409       .  A
C1282      C1287   1.408       .  A
C1282      C1293   1.495       .  S
C1283      C1284   1.409       .  A
C1283      H1288   1.083       .  S
C1284      C1285   1.408       .  A
C1285      C1286   1.407       .  A
C1285      H1289   1.083       .  S
C1286      C1287   1.407       .  A
C1286      C1302   1.490       .  S
C1287      H1290   1.083       .  S
C1291      C1292   1.406       .  A
C1291      C1296   1.396       .  A
C1291      C3588   1.486       .  S
C1292      C1293   1.412       .  A
C1292      H1297   1.083       .  S
C1293      C1294   1.413       .  A
C1294      C1295   1.405       .  A
C1294      H1298   1.083       .  S
C1295      C1296   1.395       .  A
C1295      C3599   1.484       .  S
C1296      H1299   1.085       .  S
C1300      C1301   1.409       .  A
C1300      C1305   1.397       .  A
C1300      C5282   1.496       .  S
C1301      C1302   1.414   1_556  A
C1301      H1306   1.083       .  S
C1302      C1303   1.412       .  A
C1303      C1304   1.402       .  A
C1303      H1307   1.083       .  S
C1304      C1305   1.392   1_554  A
C1304      C3571   1.482       .  S
C1305      H1308   1.085       .  S
O1309     Mg1311   2.128       .  S
O1309     Mg1317   2.126       .  S
O1309      C1344   1.240       .  S
C1310      H1349   1.082       .  S
C1310      O1323   1.240       .  S
C1310      O1347   1.274       .  A
Mg1311     O1340   2.119       .  S
Mg1311     O1355   2.328       .  S
Mg1311     O1351   2.252       .  S
Mg1311     O1322   2.312       .  S
O1312     Mg1354   2.110       .  S
O1312     Mg1337   2.120       .  S
O1312      C1333   1.239   1_554  S
O1313      C1344   1.274       .  A
O1313     Mg1337   2.303       .  S
C1314      C4806   1.481       .  S
C1314      O1316   1.271       .  A
C1314      O1328   1.274       .  A
O1315      C1343   1.272       .  A
O1315     Mg1317   2.302       .  S
O1316     Mg1348   2.253       .  S
Mg1317     O1323   2.109       .  S
Mg1317     O1331   2.213       .  S
Mg1317     O1319   2.312       .  S
C1318      C3560   1.496       .  S
C1318      O1356   1.270       .  A
C1318      O1324   1.274       .  A
O1319      C1326   1.273       .  A
H1320      C1333   1.083       .  S
C1321      H1346   1.081       .  S
C1321      O1335   1.240       .  S
C1321      O1336   1.275       .  A
O1322      C1345   1.274       .  A
O1323     Mg1337   2.119       .  S
O1324     Mg1354   2.315   1_556  S
C1325      C3574   1.491       .  S
C1325      O1338   1.271   1_554  A
C1325      O1330   1.276       .  A
C1326      C3529   1.480       .  S
C1326      O1353   1.271       .  A
Mg1327     O1334   2.125       .  S
Mg1327     O1335   2.120       .  S
Mg1327     O1328   2.308       .  S
Mg1327     O1329   2.310   1_554  S
Mg1327     O1356   2.251   1_554  S
O1329      C1333   1.273       .  A
O1330     Mg1337   2.323       .  S
O1331      C1350   1.267       .  A
O1332      C1352   1.276       .  A
O1332     Mg1348   2.327       .  S
O1334     Mg1348   2.123       .  S
O1334      C1345   1.239       .  S
O1335     Mg1354   2.133       .  S
O1336     Mg1348   2.312       .  S
Mg1337     O1353   2.265       .  S
O1338     Mg1354   2.251   1_556  S
H1339      C1344   1.081       .  S
O1340     Mg1348   2.126       .  S
O1340      C1343   1.239       .  S
H1341      C1343   1.082       .  S
H1342      C1345   1.083       .  S
O1347     Mg1354   2.308       .  S
C1350      C3543   1.509       .  S
C1350      O1355   1.276       .  A
O1351      C1352   1.271       .  A
C1352      C5128   1.493       .  S
C1357      C1358   1.394       .  A
C1357      C1362   1.404       .  A
C1357      C3557   1.482       .  S
C1358      C1359   1.394       .  A
C1358      H1363   1.085       .  S
C1359      C1360   1.403       .  A
C1359      C4862   1.486       .  S
C1360      C1361   1.411       .  A
C1360      H1364   1.083       .  S
C1361      C1362   1.411       .  A
C1361      C1377   1.488       .  S
C1362      H1365   1.083       .  S
C1366      C1367   1.399       .  A
C1366      C1371   1.393       .  A
C1366      C3515   1.480       .  S
C1367      C1368   1.409       .  A
C1367      H1372   1.083       .  S
C1368      C1369   1.413       .  A
C1368      C1379   1.489       .  S
C1369      C1370   1.409       .  A
C1369      H1373   1.083       .  S
C1370      C1371   1.399       .  A
C1370      C5223   1.494       .  S
C1371      H1374   1.085       .  S
C1375      C1376   1.407       .  A
C1375      C1380   1.407       .  A
C1375      C1386   1.494       .  S
C1376      C1377   1.407       .  A
C1376      H1381   1.083       .  S
C1377      C1378   1.407       .  A
C1378      C1379   1.407       .  A
C1378      H1382   1.084       .  S
C1379      C1380   1.408       .  A
C1380      H1383   1.083       .  S
C1384      C1385   1.408       .  A
C1384      C1389   1.397       .  A
C1384      C3501   1.494       .  S
C1385      C1386   1.412       .  A
C1385      H1390   1.082       .  S
C1386      C1387   1.411       .  A
C1387      C1388   1.403       .  A
C1387      H1391   1.083       .  S
C1388      C1389   1.393       .  A
C1388      C3487   1.479       .  S
C1389      H1392   1.084       .  S
C1393      C1394   1.397       .  A
C1393      C1398   1.404       .  A
C1393      C3476   1.496       .  S
C1394      C1395   1.396       .  A
C1394      H1399   1.083       .  S
C1395      C1396   1.406       .  A
C1395      C4638   1.500       .  S
C1396      C1397   1.412       .  A
C1396      H1400   1.083       .  S
C1397      C1398   1.411       .  A
C1397      C1424   1.484       .  S
C1398      H1401   1.083       .  S
C1402      C1403   1.396       .  A
C1402      C1407   1.406       .  A
C1402      C3459   1.490       .  S
C1403      C1404   1.396       .  A
C1403      H1408   1.084       .  S
C1404      C1405   1.407       .  A
C1404      C3644   1.493       .  S
C1405      C1406   1.413       .  A
C1405      H1409   1.083       .  S
C1406      C1407   1.411       .  A
C1406      C1422   1.496       .  S
C1407      H1410   1.083       .  S
C1411      C1412   1.403       .  A
C1411      C1416   1.398       .  A
C1411      C3445   1.484       .  S
C1412      C1413   1.409       .  A
C1412      H1417   1.083       .  S
C1413      C1414   1.412       .  A
C1413      C1420   1.493       .  S
C1414      C1415   1.408       .  A
C1414      H1418   1.083       .  S
C1415      C1416   1.398       .  A
C1415      C3431   1.493       .  S
C1416      H1419   1.085       .  S
C1420      C1421   1.410       .  A
C1420      C1425   1.406       .  A
C1421      C1422   1.411       .  A
C1421      H1426   1.082       .  S
C1422      C1423   1.408       .  A
C1423      C1424   1.405       .  A
C1423      H1427   1.083       .  S
C1424      C1425   1.404       .  A
C1425      H1428   1.083       .  S
O1429     Mg1431   2.121       .  S
O1429     Mg1437   2.129       .  S
O1429      C1464   1.239       .  S
C1430      H1469   1.082       .  S
C1430      O1443   1.239       .  S
C1430      O1467   1.271       .  A
Mg1431     O1460   2.127       .  S
Mg1431     O1475   2.311       .  S
Mg1431     O1471   2.255       .  S
Mg1431     O1442   2.304       .  S
O1432     Mg1474   2.140       .  S
O1432     Mg1457   2.114       .  S
O1432      C1453   1.239       .  S
O1433      C1464   1.272       .  A
O1433     Mg1457   2.297       .  S
C1434      C3403   1.487       .  S
C1434      O1436   1.272       .  A
C1434      O1448   1.275       .  A
O1435      C1463   1.273       .  A
O1435     Mg1437   2.302       .  S
O1436     Mg1468   2.263       .  S
Mg1437     O1443   2.109       .  S
Mg1437     O1451   2.256       .  S
Mg1437     O1439   2.299       .  S
C1438      C3686   1.487       .  S
C1438      O1476   1.272       .  A
C1438      O1444   1.274       .  A
O1439      C1446   1.276       .  A
H1440      C1453   1.082       .  S
C1441      H1466   1.081       .  S
C1441      O1455   1.239       .  S
C1441      O1456   1.272       .  A
O1442      C1465   1.273       .  A
O1443     Mg1457   2.137       .  S
O1444     Mg1474   2.296       .  S
C1445      C3417   1.496       .  S
C1445      O1458   1.272       .  A
C1445      O1450   1.274       .  A
C1446      C3448   1.491       .  S
C1446      O1473   1.272       .  A
Mg1447     O1454   2.122       .  S
Mg1447     O1455   2.134       .  S
Mg1447     O1448   2.305       .  S
Mg1447     O1449   2.297       .  S
Mg1447     O1476   2.262       .  S
O1449      C1453   1.272       .  A
O1450     Mg1457   2.291       .  S
O1451      C1470   1.271       .  A
O1452      C1472   1.276       .  A
O1452     Mg1468   2.309       .  S
O1454     Mg1468   2.132       .  S
O1454      C1465   1.240       .  S
O1455     Mg1474   2.119       .  S
O1456     Mg1468   2.299       .  S
Mg1457     O1473   2.260       .  S
O1458     Mg1474   2.255       .  S
H1459      C1464   1.081       .  S
O1460     Mg1468   2.117       .  S
O1460      C1463   1.239       .  S
H1461      C1463   1.081       .  S
H1462      C1465   1.082       .  S
O1467     Mg1474   2.294       .  S
C1470      C3518   1.479       .  S
C1470      O1475   1.275       .  A
O1471      C1472   1.271       .  A
C1472      C4582   1.494       .  S
C1477      C1478   1.396       .  A
C1477      C1482   1.400       .  A
C1477      C3389   1.483       .  S
C1478      C1479   1.399       .  A
C1478      H1483   1.084       .  S
C1479      C1480   1.413       .  A
C1479      C4652   1.506       .  S
C1480      C1481   1.416       .  A
C1480      H1484   1.081       .  S
C1481      C1482   1.411       .  A
C1481      C1488   1.497       .  S
C1482      H1485   1.083       .  S
C1486      C1487   1.407       .  A
C1486      C1491   1.407       .  A
C1486      C1506   1.490       .  S
C1487      C1488   1.410       .  A
C1487      H1492   1.083       .  S
C1488      C1489   1.412       .  A
C1489      C1490   1.408       .  A
C1489      H1493   1.083       .  S
C1490      C1491   1.407       .  A
C1490      C1497   1.497       .  S
C1491      H1494   1.083       .  S
C1495      C1496   1.403       .  A
C1495      C1500   1.396       .  A
C1495      C3375   1.486       .  S
C1496      C1497   1.412       .  A
C1496      H1501   1.083       .  S
C1497      C1498   1.414       .  A
C1498      C1499   1.413       .  A
C1498      H1502   1.082       .  S
C1499      C1500   1.399       .  A
C1499      C3361   1.503       .  S
C1500      H1503   1.084       .  S
C1504      C1505   1.401       .  A
C1504      C1509   1.394       .  A
C1504      C3347   1.481       .  S
C1505      C1506   1.408       .  A
C1505      H1510   1.083       .  S
C1506      C1507   1.413       .  A
C1507      C1508   1.413       .  A
C1507      H1511   1.082       .  S
C1508      C1509   1.401       .  A
C1508      C3333   1.508       .  S
C1509      H1512   1.084       .  S
O1513     Mg1515   2.117       .  S
O1513     Mg1521   2.122       .  S
O1513      C1548   1.239       .  S
C1514      H1553   1.083       .  S
C1514      O1527   1.240       .  S
C1514      O1551   1.275       .  A
Mg1515     O1544   2.117       .  S
Mg1515     O1559   2.309       .  S
Mg1515     O1555   2.243       .  S
Mg1515     O1526   2.314       .  S
O1516     Mg1558   2.105       .  S
O1516     Mg1541   2.122       .  S
O1516      C1537   1.239       .  S
O1517      C1548   1.273       .  A
O1517     Mg1541   2.299       .  S
C1518      C3473   1.511       .  S
C1518      O1520   1.270       .  A
C1518      O1532   1.275       .  A
O1519      C1547   1.273       .  A
O1519     Mg1521   2.306       .  S
O1520     Mg1552   2.236       .  S
Mg1521     O1527   2.119       .  S
Mg1521     O1535   2.252       .  S
Mg1521     O1523   2.310       .  S
C1522      C4960   1.508       .  S
C1522      O1560   1.269       .  A
C1522      O1528   1.274       .  A
O1523      C1530   1.274       .  A
H1524      C1537   1.083       .  S
C1525      H1550   1.082       .  S
C1525      O1539   1.239       .  S
C1525      O1540   1.274       .  A
O1526      C1549   1.275       .  A
O1527     Mg1541   2.122       .  S
O1528     Mg1558   2.321       .  S
C1529      C4719   1.504       .  S
C1529      O1542   1.270       .  A
C1529      O1534   1.276       .  A
C1530      C3305   1.477       .  S
C1530      O1557   1.271       .  A
Mg1531     O1538   2.131       .  S
Mg1531     O1539   2.118       .  S
Mg1531     O1532   2.321       .  S
Mg1531     O1533   2.313       .  S
Mg1531     O1560   2.255       .  S
O1533      C1537   1.274       .  A
O1534     Mg1541   2.327       .  S
O1535      C1554   1.271       .  A
O1536      C1556   1.276       .  A
O1536     Mg1552   2.328       .  S
O1538     Mg1552   2.123       .  S
O1538      C1549   1.241       .  S
O1539     Mg1558   2.133       .  S
O1540     Mg1552   2.313       .  S
Mg1541     O1557   2.255       .  S
O1542     Mg1558   2.256       .  S
H1543      C1548   1.081       .  S
O1544     Mg1552   2.112       .  S
O1544      C1547   1.239       .  S
H1545      C1547   1.083       .  S
H1546      C1549   1.083       .  S
O1551     Mg1558   2.312       .  S
C1554      C3319   1.487       .  S
C1554      O1559   1.274       .  A
O1555      C1556   1.269       .  A
C1556      C3350   1.485       .  S
O1561     Mg1563   2.122       .  S
O1561     Mg1569   2.119       .  S
O1561      C1596   1.239       .  S
C1562      H1601   1.082       .  S
C1562      O1575   1.239       .  S
C1562      O1599   1.272       .  A
Mg1563     O1592   2.108       .  S
Mg1563     O1607   2.325       .  S
Mg1563     O1603   2.247       .  S
Mg1563     O1574   2.323       .  S
O1564     Mg1606   2.121       .  S
O1564     Mg1589   2.107       .  S
O1564      C1585   1.240   1_655  S
O1565      C1596   1.273       .  A
O1565     Mg1589   2.304       .  S
C1566      C4274   1.502       .  S
C1566      O1568   1.270       .  A
C1566      O1580   1.274       .  A
O1567      C1595   1.274       .  A
O1567     Mg1569   2.316       .  S
O1568     Mg1600   2.255       .  S
Mg1569     O1575   2.115       .  S
Mg1569     O1583   2.241       .  S
Mg1569     O1571   2.325       .  S
C1570      C3392   1.503       .  S
C1570      O1608   1.271       .  A
C1570      O1576   1.273       .  A
O1571      C1578   1.276       .  A
H1572      C1585   1.081       .  S
C1573      H1598   1.083       .  S
C1573      O1587   1.239       .  S
C1573      O1588   1.274       .  A
O1574      C1597   1.276       .  A
O1575     Mg1589   2.125       .  S
O1576     Mg1606   2.308   1_455  S
C1577      C3291   1.477       .  S
C1577      O1590   1.270       .  A
C1577      O1582   1.274       .  A
C1578      C3826   1.511       .  S
C1578      O1605   1.268       .  A
Mg1579     O1586   2.134       .  S
Mg1579     O1587   2.109       .  S
Mg1579     O1580   2.315       .  S
Mg1579     O1581   2.306   1_655  S
Mg1579     O1608   2.263   1_655  S
O1581      C1585   1.273       .  A
O1582     Mg1589   2.310       .  S
O1583      C1602   1.269       .  A
O1584      C1604   1.274       .  A
O1584     Mg1600   2.326       .  S
O1586     Mg1600   2.111       .  S
O1586      C1597   1.240       .  S
O1587     Mg1606   2.116       .  S
O1588     Mg1600   2.314       .  S
Mg1589     O1605   2.225       .  S
O1590     Mg1606   2.245       .  S
H1591      C1596   1.082       .  S
O1592     Mg1600   2.132       .  S
O1592      C1595   1.239       .  S
H1593      C1595   1.082       .  S
H1594      C1597   1.084       .  S
O1599     Mg1606   2.297       .  S
C1602      C3277   1.514       .  S
C1602      O1607   1.275       .  A
O1603      C1604   1.267       .  A
C1604      C4918   1.509       .  S
O1609     Mg1611   2.119       .  S
O1609     Mg1617   2.123       .  S
O1609      C1644   1.238       .  S
C1610      H1649   1.082       .  S
C1610      O1623   1.240       .  S
C1610      O1647   1.274       .  A
Mg1611     O1640   2.129       .  S
Mg1611     O1655   2.315       .  S
Mg1611     O1651   2.261       .  S
Mg1611     O1622   2.297       .  S
O1612     Mg1654   2.129       .  S
O1612     Mg1637   2.114       .  S
O1612      C1633   1.239       .  S
O1613      C1644   1.273       .  A
O1613     Mg1637   2.301       .  S
C1614      C4442   1.491       .  S
C1614      O1616   1.273       .  A
C1614      O1628   1.275       .  A
O1615      C1643   1.273       .  A
O1615     Mg1617   2.303       .  S
O1616     Mg1648   2.265       .  S
Mg1617     O1623   2.117       .  S
Mg1617     O1631   2.253       .  S
Mg1617     O1619   2.325       .  S
C1618      C4834   1.487       .  S
C1618      O1656   1.272       .  A
C1618      O1624   1.275       .  A
O1619      C1626   1.276       .  A
H1620      C1633   1.081       .  S
C1621      H1646   1.082       .  S
C1621      O1635   1.240       .  S
C1621      O1636   1.273       .  A
O1622      C1645   1.272       .  A
O1623     Mg1637   2.122       .  S
O1624     Mg1654   2.307       .  S
C1625      C4932   1.514       .  S
C1625      O1638   1.270       .  A
C1625      O1630   1.274       .  A
C1626      C3249   1.482       .  S
C1626      O1653   1.271       .  A
Mg1627     O1634   2.116       .  S
Mg1627     O1635   2.134       .  S
Mg1627     O1628   2.299       .  S
Mg1627     O1629   2.297       .  S
Mg1627     O1656   2.265       .  S
O1629      C1633   1.272       .  A
O1630     Mg1637   2.303       .  S
O1631      C1650   1.270       .  A
O1632      C1652   1.275       .  A
O1632     Mg1648   2.313       .  S
O1634     Mg1648   2.130       .  S
O1634      C1645   1.238       .  S
O1635     Mg1654   2.120       .  S
O1636     Mg1648   2.300       .  S
Mg1637     O1653   2.266       .  S
O1638     Mg1654   2.257       .  S
H1639      C1644   1.082       .  S
O1640     Mg1648   2.127       .  S
O1640      C1643   1.239       .  S
H1641      C1643   1.081       .  S
H1642      C1645   1.082       .  S
O1647     Mg1654   2.305       .  S
C1650      C3263   1.477       .  S
C1650      O1655   1.276       .  A
O1651      C1652   1.271       .  A
C1652      C3235   1.477       .  S
C1657      C1658   1.397       .  A
C1657      C1662   1.408       .  A
C1657      C3280   1.495       .  S
C1658      C1659   1.392       .  A
C1658      H1663   1.085       .  S
C1659      C1660   1.402       .  A
C1659      C3980   1.485       .  S
C1660      C1661   1.411       .  A
C1660      H1664   1.083       .  S
C1661      C1662   1.414       .  A
C1661      C1666   1.490       .  S
C1662      H1665   1.083       .  S
C1666      C1667   1.403       .  A
C1666      C1671   1.405       .  A
C1667      C1668   1.409       .  A
C1667      H1672   1.083       .  S
C1668      C1669   1.413       .  A
C1668      C1688   1.498       .  S
C1669      C1670   1.412       .  A
C1669      H1673   1.081       .  S
C1670      C1671   1.409       .  A
C1670      C1677   1.500       .  S
C1671      H1674   1.083       .  S
C1675      C1676   1.405       .  A
C1675      C1680   1.396       .  A
C1675      C3207   1.490       .  S
C1676      C1677   1.411       .  A
C1676      H1681   1.083       .  S
C1677      C1678   1.412       .  A
C1678      C1679   1.412       .  A
C1678      H1682   1.082       .  S
C1679      C1680   1.400       .  A
C1679      C3221   1.499       .  S
C1680      H1683   1.084       .  S
C1684      C1685   1.400       .  A
C1684      C1689   1.410       .  A
C1684      C4554   1.497       .  S
C1685      C1686   1.394       .  A
C1685      H1690   1.084       .  S
C1686      C1687   1.404       .  A
C1686      C3252   1.486       .  S
C1687      C1688   1.411       .  A
C1687      H1691   1.083       .  S
C1688      C1689   1.411       .  A
C1689      H1692   1.082       .  S
O1693     Mg1695   2.120       .  S
O1693     Mg1701   2.123       .  S
O1693      C1728   1.240       .  S
C1694      H1733   1.081       .  S
C1694      O1707   1.238       .  S
C1694      O1731   1.271       .  A
Mg1695     O1724   2.125       .  S
Mg1695     O1739   2.315       .  S
Mg1695     O1735   2.232       .  S
Mg1695     O1706   2.298       .  S
O1696     Mg1738   2.136       .  S
O1696     Mg1721   2.124       .  S
O1696      C1717   1.239       .  S
O1697      C1728   1.274       .  A
O1697     Mg1721   2.307       .  S
C1698      C5209   1.482       .  S
C1698      O1700   1.273       .  A
C1698      O1712   1.275       .  A
O1699      C1727   1.273       .  A
O1699     Mg1701   2.305       .  S
O1700     Mg1732   2.269       .  S
Mg1701     O1707   2.118       .  S
Mg1701     O1715   2.244       .  S
Mg1701     O1703   2.298       .  S
C1702      C3179   1.500       .  S
C1702      O1740   1.270       .  A
C1702      O1708   1.276       .  A
O1703      C1710   1.273       .  A
H1704      C1717   1.082       .  S
C1705      H1730   1.081       .  S
C1705      O1719   1.239       .  S
C1705      O1720   1.272       .  A
O1706      C1729   1.272       .  A
O1707     Mg1721   2.126       .  S
O1708     Mg1738   2.320       .  S
C1709      C3165   1.477       .  S
C1709      O1722   1.271       .  A
C1709      O1714   1.275       .  A
C1710      C3490   1.484       .  S
C1710      O1737   1.272       .  A
Mg1711     O1718   2.113       .  S
Mg1711     O1719   2.128       .  S
Mg1711     O1712   2.312       .  S
Mg1711     O1713   2.298       .  S
Mg1711     O1740   2.224       .  S
O1713      C1717   1.273       .  A
O1714     Mg1721   2.309       .  S
O1715      C1734   1.269       .  A
O1716      C1736   1.277       .  A
O1716     Mg1732   2.327       .  S
O1718     Mg1732   2.129       .  S
O1718      C1729   1.239       .  S
O1719     Mg1738   2.120       .  S
O1720     Mg1732   2.297       .  S
Mg1721     O1737   2.256       .  S
O1722     Mg1738   2.248       .  S
H1723      C1728   1.082       .  S
O1724     Mg1732   2.121       .  S
O1724      C1727   1.240       .  S
H1725      C1727   1.082       .  S
H1726      C1729   1.081       .  S
O1731     Mg1738   2.300       .  S
C1734      C3193   1.482       .  S
C1734      O1739   1.275       .  A
O1735      C1736   1.271       .  A
C1736      C5114   1.508       .  S
C1741      C1742   1.396       .  A
C1741      C1746   1.406       .  A
C1741      C3910   1.486       .  S
C1742      C1743   1.394       .  A
C1742      H1747   1.085       .  S
C1743      C1744   1.405       .  A
C1743      C4330   1.483       .  S
C1744      C1745   1.413       .  A
C1744      H1748   1.083       .  S
C1745      C1746   1.412       .  A
C1745      C1752   1.497       .  S
C1746      H1749   1.083       .  S
C1750      C1751   1.407       .  A
C1750      C1755   1.406       .  A
C1750      C1772   1.492       .  S
C1751      C1752   1.408       .  A
C1751      H1756   1.083       .  S
C1752      C1753   1.411       .  A
C1753      C1754   1.411       .  A
C1753      H1757   1.082       .  S
C1754      C1755   1.409       .  A
C1754      C1761   1.498       .  S
C1755      H1758   1.083       .  S
C1759      C1760   1.410       .  A
C1759      C1764   1.399       .  A
C1759      C3137   1.496       .  S
C1760      C1761   1.413       .  A
C1760      H1765   1.082       .  S
C1761      C1762   1.412       .  A
C1762      C1763   1.403       .  A
C1762      H1766   1.083       .  S
C1763      C1764   1.394       .  A
C1763      C3151   1.483       .  S
C1764      H1767   1.084       .  S
C1768      C1769   1.396       .  A
C1768      C1773   1.407       .  A
C1768      C4890   1.490       .  S
C1769      C1770   1.393       .  A
C1769      H1774   1.085       .  S
C1770      C1771   1.403       .  A
C1770      C3196   1.481       .  S
C1771      C1772   1.411       .  A
C1771      H1775   1.083       .  S
C1772      C1773   1.413       .  A
C1773      H1776   1.083       .  S
C1777      C1778   1.393       .  A
C1777      C1782   1.405       .  A
C1777      C3123   1.482       .  S
C1778      C1779   1.394       .  A
C1778      H1783   1.085       .  S
C1779      C1780   1.404       .  A
C1779      C4134   1.484       .  S
C1780      C1781   1.413       .  A
C1780      H1784   1.083       .  S
C1781      C1782   1.413       .  A
C1781      C1788   1.491       .  S
C1782      H1785   1.083       .  S
C1786      C1787   1.410   1_565  A
C1786      C1791   1.408       .  A
C1786      C1806   1.493       .  S
C1787      C1788   1.409       .  A
C1787      H1792   1.083       .  S
C1788      C1789   1.406   1_545  A
C1789      C1790   1.406       .  A
C1789      H1793   1.084       .  S
C1790      C1791   1.406       .  A
C1790      C1799   1.487       .  S
C1791      H1794   1.083       .  S
C1795      C1796   1.401       .  A
C1795      C1800   1.411       .  A
C1795      C4624   1.504       .  S
C1796      C1797   1.394       .  A
C1796      H1801   1.083       .  S
C1797      C1798   1.402       .  A
C1797      C5058   1.492       .  S
C1798      C1799   1.409       .  A
C1798      H1802   1.083       .  S
C1799      C1800   1.413       .  A
C1800      H1803   1.082       .  S
C1804      C1805   1.405       .  A
C1804      C1809   1.392       .  A
C1804      C4204   1.482       .  S
C1805      C1806   1.414       .  A
C1805      H1810   1.083       .  S
C1806      C1807   1.412   1_565  A
C1807      C1808   1.405       .  A
C1807      H1811   1.083       .  S
C1808      C1809   1.393   1_545  A
C1808      C3109   1.480       .  S
C1809      H1812   1.085       .  S
C1813      C1814   1.398       .  A
C1813      C1818   1.409       .  A
C1813      C3630   1.496       .  S
C1814      C1815   1.394       .  A
C1814      H1819   1.084       .  S
C1815      C1816   1.402       .  A
C1815      C4512   1.480       .  S
C1816      C1817   1.411       .  A
C1816      H1820   1.083       .  S
C1817      C1818   1.415       .  A
C1817      C1833   1.498       .  S
C1818      H1821   1.082       .  S
C1822      C1823   1.402       .  A
C1822      C1827   1.410       .  A
C1822      C3095   1.501       .  S
C1823      C1824   1.393       .  A
C1823      H1828   1.084       .  S
C1824      C1825   1.399       .  A
C1824      C4848   1.480       .  S
C1825      C1826   1.409       .  A
C1825      H1829   1.083       .  S
C1826      C1827   1.412       .  A
C1826      C1831   1.490       .  S
C1827      H1830   1.083       .  S
C1831      C1832   1.406       .  A
C1831      C1836   1.407       .  A
C1832      C1833   1.407       .  A
C1832      H1837   1.082       .  S
C1833      C1834   1.411       .  A
C1834      C1835   1.410       .  A
C1834      H1838   1.082       .  S
C1835      C1836   1.408       .  A
C1835      C1844   1.499       .  S
C1836      H1839   1.082       .  S
C1840      C1841   1.396       .  A
C1840      C1845   1.408       .  A
C1840      C3081   1.490       .  S
C1841      C1842   1.398       .  A
C1841      H1846   1.084       .  S
C1842      C1843   1.407       .  A
C1842      C3266   1.493       .  S
C1843      C1844   1.410       .  A
C1843      H1847   1.082       .  S
C1844      C1845   1.413       .  A
C1845      H1848   1.083       .  S
O1849     Mg1851   2.120       .  S
O1849     Mg1857   2.141       .  S
O1849      C1884   1.239       .  S
C1850      H1889   1.081       .  S
C1850      O1863   1.240       .  S
C1850      O1887   1.273       .  A
Mg1851     O1880   2.129       .  S
Mg1851     O1895   2.309       .  S
Mg1851     O1891   2.281       .  S
Mg1851     O1862   2.300       .  S
O1852     Mg1894   2.135       .  S
O1852     Mg1877   2.120       .  S
O1852      C1873   1.238       .  S
O1853      C1884   1.272       .  A
O1853     Mg1877   2.297       .  S
C1854      C3067   1.482       .  S
C1854      O1856   1.271       .  A
C1854      O1868   1.277       .  A
O1855      C1883   1.272       .  A
O1855     Mg1857   2.300       .  S
O1856     Mg1888   2.257       .  S
Mg1857     O1863   2.119       .  S
Mg1857     O1871   2.263       .  S
Mg1857     O1859   2.294       .  S
C1858      C4176   1.484       .  S
C1858      O1896   1.273       .  A
C1858      O1864   1.279       .  A
O1859      C1866   1.274       .  A
H1860      C1873   1.081       .  S
C1861      H1886   1.081       .  S
C1861      O1875   1.240       .  S
C1861      O1876   1.273       .  A
O1862      C1885   1.273       .  A
O1863     Mg1877   2.143       .  S
O1864     Mg1894   2.336       .  S
C1865      C4414   1.508       .  S
C1865      O1878   1.274       .  A
C1865      O1870   1.273       .  A
C1866      C3053   1.499       .  S
C1866      O1893   1.272       .  A
Mg1867     O1874   2.122       .  S
Mg1867     O1875   2.129       .  S
Mg1867     O1868   2.321       .  S
Mg1867     O1869   2.298       .  S
Mg1867     O1896   2.264       .  S
O1869      C1873   1.272       .  A
O1870     Mg1877   2.293       .  S
O1871      C1890   1.271       .  A
O1872      C1892   1.276       .  A
O1872     Mg1888   2.318       .  S
O1874     Mg1888   2.128       .  S
O1874      C1885   1.239       .  S
O1875     Mg1894   2.123       .  S
O1876     Mg1888   2.303       .  S
Mg1877     O1893   2.261       .  S
O1878     Mg1894   2.266       .  S
H1879      C1884   1.081       .  S
O1880     Mg1888   2.125       .  S
O1880      C1883   1.239       .  S
H1881      C1883   1.081       .  S
H1882      C1885   1.080       .  S
O1887     Mg1894   2.302       .  S
C1890      C3098   1.514       .  S
C1890      O1895   1.277       .  A
O1891      C1892   1.273       .  A
C1892      C3154   1.486       .  S
O1897     Mg1899   2.113       .  S
O1897     Mg1905   2.119       .  S
O1897      C1932   1.240       .  S
C1898      H1937   1.083       .  S
C1898      O1911   1.239   1_455  S
C1898      O1935   1.274       .  A
Mg1899     O1928   2.127       .  S
Mg1899     O1943   2.319       .  S
Mg1899     O1939   2.224       .  S
Mg1899     O1910   2.306       .  S
O1900     Mg1942   2.111       .  S
O1900     Mg1925   2.124       .  S
O1900      C1921   1.240       .  S
O1901      C1932   1.274       .  A
O1901     Mg1925   2.304       .  S
C1902      C3025   1.498       .  S
C1902      O1904   1.272       .  A
C1902      O1916   1.275       .  A
O1903      C1931   1.274       .  A
O1903     Mg1905   2.309       .  S
O1904     Mg1936   2.262       .  S
Mg1905     O1911   2.119       .  S
Mg1905     O1919   2.253       .  S
Mg1905     O1907   2.325       .  S
C1906      C4974   1.482       .  S
C1906      O1944   1.271       .  A
C1906      O1912   1.273       .  A
O1907      C1914   1.275       .  A
H1908      C1921   1.082       .  S
C1909      H1934   1.082       .  S
C1909      O1923   1.240       .  S
C1909      O1924   1.275       .  A
O1910      C1933   1.273       .  A
O1911     Mg1925   2.113       .  S
O1912     Mg1942   2.304       .  S
C1913      C4736   1.501       .  S
C1913      O1926   1.269       .  A
C1913      O1918   1.276       .  A
C1914      C3039   1.482       .  S
C1914      O1941   1.271   1_655  A
Mg1915     O1922   2.127       .  S
Mg1915     O1923   2.124       .  S
Mg1915     O1916   2.317       .  S
Mg1915     O1917   2.308       .  S
Mg1915     O1944   2.250       .  S
O1917      C1921   1.274       .  A
O1918     Mg1925   2.334   1_455  S
O1919      C1938   1.271       .  A
O1920      C1940   1.277       .  A
O1920     Mg1936   2.334       .  S
O1922     Mg1936   2.118       .  S
O1922      C1933   1.239       .  S
O1923     Mg1942   2.128       .  S
O1924     Mg1936   2.316       .  S
Mg1925     O1941   2.245   1_655  S
O1926     Mg1942   2.250   1_455  S
H1927      C1932   1.081       .  S
O1928     Mg1936   2.128       .  S
O1928      C1931   1.240       .  S
H1929      C1931   1.082       .  S
H1930      C1933   1.082       .  S
O1935     Mg1942   2.310   1_455  S
C1938      C3014   1.484       .  S
C1938      O1943   1.275       .  A
O1939      C1940   1.268       .  A
C1940      C4470   1.511       .  S
C1945      C1946   1.407       .  A
C1945      C1950   1.394       .  A
C1945      C3616   1.487       .  S
C1946      C1947   1.416       .  A
C1946      H1951   1.083       .  S
C1947      C1948   1.413       .  A
C1947      C1956   1.496       .  S
C1948      C1949   1.404       .  A
C1948      H1952   1.083       .  S
C1949      C1950   1.393       .  A
C1949      C2997   1.483       .  S
C1950      H1953   1.085       .  S
C1954      C1955   1.412       .  A
C1954      C1959   1.415       .  A
C1954      C1976   1.502       .  S
C1955      C1956   1.408       .  A
C1955      H1960   1.082       .  S
C1956      C1957   1.405       .  A
C1957      C1958   1.410       .  A
C1957      H1961   1.083       .  S
C1958      C1959   1.409       .  A
C1958      C1965   1.499       .  S
C1959      H1962   1.082       .  S
C1963      C1964   1.424   1_455  A
C1963      C1968   1.403       .  A
C1963      C3042   1.525       .  S
C1964      C1965   1.418       .  A
C1964      H1969   1.079       .  S
C1965      C1966   1.407   1_655  A
C1966      C1967   1.396       .  A
C1966      H1970   1.084       .  S
C1967      C1968   1.398       .  A
C1967      C2983   1.486       .  S
C1968      H1971   1.080       .  S
C1972      C1973   1.400       .  A
C1972      C1977   1.412       .  A
C1972      C3070   1.503       .  S
C1973      C1974   1.394       .  A
C1973      H1978   1.084       .  S
C1974      C1975   1.404       .  A
C1974      C4232   1.483       .  S
C1975      C1976   1.411       .  A
C1975      H1979   1.083       .  S
C1976      C1977   1.416       .  A
C1977      H1980   1.081       .  S
O1981     Mg1983   2.118       .  S
O1981     Mg1989   2.125       .  S
O1981      C2016   1.240       .  S
C1982      H2021   1.081   1_655  S
C1982      O1995   1.239       .  S
C1982      O2019   1.272   1_655  A
Mg1983     O2012   2.127       .  S
Mg1983     O2027   2.318       .  S
Mg1983     O2023   2.254       .  S
Mg1983     O1994   2.302       .  S
O1984     Mg2026   2.133   1_655  S
O1984     Mg2009   2.122       .  S
O1984      C2005   1.240       .  S
O1985      C2016   1.273       .  A
O1985     Mg2009   2.300       .  S
C1986      C3000   1.491       .  S
C1986      O1988   1.273       .  A
C1986      O2000   1.276       .  A
O1987      C2015   1.274       .  A
O1987     Mg1989   2.304       .  S
O1988     Mg2020   2.265       .  S
Mg1989     O1995   2.117       .  S
Mg1989     O2003   2.263       .  S
Mg1989     O1991   2.310       .  S
C1990      C3669   1.495       .  S
C1990      O2028   1.272       .  A
C1990      O1996   1.276       .  A
O1991      C1998   1.276       .  A
H1992      C2005   1.081       .  S
C1993      H2018   1.081       .  S
C1993      O2007   1.239       .  S
C1993      O2008   1.273       .  A
O1994      C2017   1.273       .  A
O1995     Mg2009   2.131       .  S
O1996     Mg2026   2.304   1_655  S
C1997      C2955   1.490       .  S
C1997      O2010   1.273       .  A
C1997      O2002   1.276       .  A
C1998      C2969   1.492       .  S
C1998      O2025   1.272       .  A
Mg1999     O2006   2.121       .  S
Mg1999     O2007   2.134       .  S
Mg1999     O2000   2.311       .  S
Mg1999     O2001   2.302       .  S
Mg1999     O2028   2.261       .  S
O2001      C2005   1.273       .  A
O2002     Mg2009   2.308   1_455  S
O2003      C2022   1.272       .  A
O2004      C2024   1.277       .  A
O2004     Mg2020   2.323       .  S
O2006     Mg2020   2.129       .  S
O2006      C2017   1.239       .  S
O2007     Mg2026   2.122   1_655  S
O2008     Mg2020   2.302       .  S
Mg2009     O2025   2.265       .  S
O2010     Mg2026   2.263       .  S
H2011      C2016   1.081       .  S
O2012     Mg2020   2.124       .  S
O2012      C2015   1.240       .  S
H2013      C2015   1.081       .  S
H2014      C2017   1.082       .  S
O2019     Mg2026   2.298       .  S
C2022      C3882   1.488       .  S
C2022      O2027   1.276       .  A
O2023      C2024   1.271       .  A
C2024      C3140   1.480       .  S
C2029      C2030   1.393       .  A
C2029      C2034   1.401       .  A
C2029      C2944   1.478       .  S
C2030      C2031   1.396   1_455  A
C2030      H2035   1.085       .  S
C2031      C2032   1.407       .  A
C2031      C3728   1.491       .  S
C2032      C2033   1.412       .  A
C2032      H2036   1.083       .  S
C2033      C2034   1.410   1_655  A
C2033      C2038   1.488       .  S
C2034      H2037   1.083       .  S
C2038      C2039   1.406       .  A
C2038      C2043   1.405       .  A
C2039      C2040   1.408       .  A
C2039      H2044   1.083       .  S
C2040      C2041   1.411       .  A
C2040      C2060   1.497       .  S
C2041      C2042   1.411       .  A
C2041      H2045   1.082       .  S
C2042      C2043   1.407       .  A
C2042      C2051   1.495       .  S
C2043      H2046   1.083       .  S
C2047      C2048   1.396       .  A
C2047      C2052   1.405   1_556  A
C2047      C3756   1.487   1_556  S
C2048      C2049   1.394       .  A
C2048      H2053   1.085       .  S
C2049      C2050   1.404       .  A
C2049      C2972   1.484       .  S
C2050      C2051   1.414   1_556  A
C2050      H2054   1.083       .  S
C2051      C2052   1.411       .  A
C2052      H2055   1.083       .  S
C2056      C2057   1.396       .  A
C2056      C2061   1.403       .  A
C2056      C3028   1.484       .  S
C2057      C2058   1.399       .  A
C2057      H2062   1.084       .  S
C2058      C2059   1.411       .  A
C2058      C4355   1.502       .  S
C2059      C2060   1.412       .  A
C2059      H2063   1.082       .  S
C2060      C2061   1.412       .  A
C2061      H2064   1.083       .  S
C2065      C2066   1.394       .  A
C2065      C2070   1.403       .  A
C2065      C2927   1.480       .  S
C2066      C2067   1.394       .  A
C2066      H2071   1.085       .  S
C2067      C2068   1.404       .  A
C2067      C3168   1.485       .  S
C2068      C2069   1.411       .  A
C2068      H2072   1.083       .  S
C2069      C2070   1.411       .  A
C2069      C2094   1.489       .  S
C2070      H2073   1.083       .  S
C2074      C2075   1.406       .  A
C2074      C2079   1.397       .  A
C2074      C3056   1.489       .  S
C2075      C2076   1.411       .  A
C2075      H2080   1.083       .  S
C2076      C2077   1.411       .  A
C2076      C2092   1.491       .  S
C2077      C2078   1.402       .  A
C2077      H2081   1.083       .  S
C2078      C2079   1.393       .  A
C2078      C2913   1.481       .  S
C2079      H2082   1.085       .  S
C2083      C2084   1.397       .  A
C2083      C2088   1.407       .  A
C2083      C4400   1.491       .  S
C2084      C2085   1.394       .  A
C2084      H2089   1.085       .  S
C2085      C2086   1.402       .  A
C2085      C4120   1.480       .  S
C2086      C2087   1.411       .  A
C2086      H2090   1.083       .  S
C2087      C2088   1.412       .  A
C2087      C2096   1.491       .  S
C2088      H2091   1.083       .  S
C2092      C2093   1.406       .  A
C2092      C2097   1.408       .  A
C2093      C2094   1.406       .  A
C2093      H2098   1.083       .  S
C2094      C2095   1.407       .  A
C2095      C2096   1.408       .  A
C2095      H2099   1.083       .  S
C2096      C2097   1.408       .  A
C2097      H2100   1.083       .  S
C2101      C2102   1.391       .  A
C2101      C2106   1.400       .  A
C2101      C3322   1.480       .  S
C2102      C2103   1.398       .  A
C2102      H2107   1.085       .  S
C2103      C2104   1.408       .  A
C2103      C3546   1.494       .  S
C2104      C2105   1.412       .  A
C2104      H2108   1.083       .  S
C2105      C2106   1.412       .  A
C2105      C2130   1.487       .  S
C2106      H2109   1.083       .  S
C2110      C2111   1.399       .  A
C2110      C2115   1.410       .  A
C2110      C4386   1.494       .  S
C2111      C2112   1.394       .  A
C2111      H2116   1.084       .  S
C2112      C2113   1.403       .  A
C2112      C3238   1.487       .  S
C2113      C2114   1.409       .  A
C2113      H2117   1.083       .  S
C2114      C2115   1.412       .  A
C2114      C2132   1.496       .  S
C2115      H2118   1.082       .  S
C2119      C2120   1.407       .  A
C2119      C2124   1.401       .  A
C2119      C2899   1.502       .  S
C2120      C2121   1.408       .  A
C2120      H2125   1.083       .  S
C2121      C2122   1.407       .  A
C2121      C2128   1.484       .  S
C2122      C2123   1.405       .  A
C2122      H2126   1.083       .  S
C2123      C2124   1.400       .  A
C2123      C2885   1.497       .  S
C2124      H2127   1.083       .  S
C2128      C2129   1.403       .  A
C2128      C2133   1.404       .  A
C2129      C2130   1.404       .  A
C2129      H2134   1.084       .  S
C2130      C2131   1.409       .  A
C2131      C2132   1.410       .  A
C2131      H2135   1.083       .  S
C2132      C2133   1.410       .  A
C2133      H2136   1.083       .  S
C2137      C2138   1.393       .  A
C2137      C2142   1.402       .  A
C2137      C4106   1.480       .  S
C2138      C2139   1.396       .  A
C2138      H2143   1.085       .  S
C2139      C2140   1.404       .  A
C2139      C5240   1.486       .  S
C2140      C2141   1.410       .  A
C2140      H2144   1.083       .  S
C2141      C2142   1.411       .  A
C2141      C2157   1.486       .  S
C2142      H2145   1.083       .  S
C2146      C2147   1.403       .  A
C2146      C2151   1.412       .  A
C2146      C2871   1.506       .  S
C2147      C2148   1.396       .  A
C2147      H2152   1.084       .  S
C2148      C2149   1.402       .  A
C2148      C4498   1.489       .  S
C2149      C2150   1.408       .  A
C2149      H2153   1.084       .  S
C2150      C2151   1.411       .  A
C2150      C2155   1.488       .  S
C2151      H2154   1.082       .  S
C2155      C2156   1.404       .  A
C2155      C2160   1.408       .  A
C2156      C2157   1.405       .  A
C2156      H2161   1.083       .  S
C2157      C2158   1.407       .  A
C2158      C2159   1.406       .  A
C2158      H2162   1.084       .  S
C2159      C2160   1.409       .  A
C2159      C2168   1.490       .  S
C2160      H2163   1.083       .  S
C2164      C2165   1.404       .  A
C2164      C2169   1.416       .  A
C2164      C2857   1.514       .  S
C2165      C2166   1.395       .  A
C2165      H2170   1.083       .  S
C2166      C2167   1.399       .  A
C2166      C4680   1.482       .  S
C2167      C2168   1.407       .  A
C2167      H2171   1.083       .  S
C2168      C2169   1.412       .  A
C2169      H2172   1.081       .  S
O2173     Mg2175   2.111       .  S
O2173     Mg2181   2.121       .  S
O2173      C2208   1.239       .  S
C2174      H2213   1.082       .  S
C2174      O2187   1.240       .  S
C2174      O2211   1.274       .  A
Mg2175     O2204   2.124       .  S
Mg2175     O2219   2.306       .  S
Mg2175     O2215   2.244       .  S
Mg2175     O2186   2.300       .  S
O2176     Mg2218   2.127       .  S
O2176     Mg2201   2.120       .  S
O2176      C2197   1.240       .  S
O2177      C2208   1.272       .  A
O2177     Mg2201   2.304       .  S
C2178      C2843   1.480       .  S
C2178      O2180   1.272       .  A
C2178      O2192   1.278       .  A
O2179      C2207   1.273       .  A
O2179     Mg2181   2.304       .  S
O2180     Mg2212   2.253       .  S
Mg2181     O2187   2.116       .  S
Mg2181     O2195   2.254       .  S
Mg2181     O2183   2.306       .  S
C2182      C3602   1.491       .  S
C2182      O2220   1.274       .  A
C2182      O2188   1.276       .  A
O2183      C2190   1.274       .  A
H2184      C2197   1.082       .  S
C2185      H2210   1.082       .  S
C2185      O2199   1.239       .  S
C2185      O2200   1.273       .  A
O2186      C2209   1.273       .  A
O2187     Mg2201   2.125       .  S
O2188     Mg2218   2.311       .  S
C2189      C3336   1.516       .  S
C2189      O2202   1.271       .  A
C2189      O2194   1.274       .  A
C2190      C2902   1.514       .  S
C2190      O2217   1.270       .  A
Mg2191     O2198   2.125       .  S
Mg2191     O2199   2.131       .  S
Mg2191     O2192   2.326       .  S
Mg2191     O2193   2.303       .  S
Mg2191     O2220   2.275       .  S
O2193      C2197   1.273       .  A
O2194     Mg2201   2.305       .  S
O2195      C2214   1.269       .  A
O2196      C2216   1.277       .  A
O2196     Mg2212   2.328       .  S
O2198     Mg2212   2.128       .  S
O2198      C2209   1.239       .  S
O2199     Mg2218   2.127       .  S
O2200     Mg2212   2.304       .  S
Mg2201     O2217   2.258       .  S
O2202     Mg2218   2.271       .  S
H2203      C2208   1.083       .  S
O2204     Mg2212   2.119       .  S
O2204      C2207   1.239       .  S
H2205      C2207   1.082       .  S
H2206      C2209   1.081       .  S
O2211     Mg2218   2.309       .  S
C2214      C2874   1.514       .  S
C2214      O2219   1.274       .  A
O2215      C2216   1.269       .  A
C2216      C3224   1.479       .  S
O2221     Mg2223   2.122       .  S
O2221     Mg2229   2.129       .  S
O2221      C2256   1.240       .  S
C2222      H2261   1.083       .  S
C2222      O2235   1.241       .  S
C2222      O2259   1.275   1_565  A
Mg2223     O2252   2.118   1_565  S
Mg2223     O2267   2.297       .  S
Mg2223     O2263   2.243       .  S
Mg2223     O2234   2.308       .  S
O2224     Mg2266   2.108   1_565  S
O2224     Mg2249   2.123       .  S
O2224      C2245   1.239       .  S
O2225      C2256   1.274       .  A
O2225     Mg2249   2.304       .  S
C2226      C4708   1.503       .  S
C2226      O2228   1.271       .  A
C2226      O2240   1.276       .  A
O2227      C2255   1.272   1_565  A
O2227     Mg2229   2.304       .  S
O2228     Mg2260   2.230       .  S
Mg2229     O2235   2.120       .  S
Mg2229     O2243   2.253       .  S
Mg2229     O2231   2.315       .  S
C2230      C2829   1.483       .  S
C2230      O2268   1.272       .  A
C2230      O2236   1.275       .  A
O2231      C2238   1.274       .  A
H2232      C2245   1.082       .  S
C2233      H2258   1.081       .  S
C2233      O2247   1.240       .  S
C2233      O2248   1.274       .  A
O2234      C2257   1.274   1_565  A
O2235     Mg2249   2.119       .  S
O2236     Mg2266   2.311       .  S
C2237      C2801   1.507       .  S
C2237      O2250   1.270       .  A
C2237      O2242   1.275       .  A
C2238      C3364   1.479       .  S
C2238      O2265   1.271       .  A
Mg2239     O2246   2.122       .  S
Mg2239     O2247   2.131       .  S
Mg2239     O2240   2.327       .  S
Mg2239     O2241   2.308   1_545  S
Mg2239     O2268   2.250       .  S
O2241      C2245   1.273       .  A
O2242     Mg2249   2.330       .  S
O2243      C2262   1.271       .  A
O2244      C2264   1.276       .  A
O2244     Mg2260   2.327       .  S
O2246     Mg2260   2.120       .  S
O2246      C2257   1.240       .  S
O2247     Mg2266   2.129       .  S
O2248     Mg2260   2.307       .  S
Mg2249     O2265   2.256       .  S
O2250     Mg2266   2.258   1_565  S
H2251      C2256   1.082       .  S
O2252     Mg2260   2.116       .  S
O2252      C2255   1.239       .  S
H2253      C2255   1.082       .  S
H2254      C2257   1.083       .  S
O2259     Mg2266   2.314       .  S
C2262      C2818   1.481       .  S
C2262      O2267   1.272       .  A
O2263      C2264   1.269   1_565  A
C2264      C3112   1.487       .  S
C2269      C2270   1.398   1_565  A
C2269      C2274   1.403       .  A
C2269      C2790   1.486       .  S
C2270      C2271   1.398       .  A
C2270      H2275   1.085       .  S
C2271      C2272   1.408       .  A
C2271      C4092   1.493       .  S
C2272      C2273   1.414       .  A
C2272      H2276   1.083       .  S
C2273      C2274   1.410   1_545  A
C2273      C2280   1.494       .  S
C2274      H2277   1.083       .  S
C2278      C2279   1.410       .  A
C2278      C2283   1.409   1_565  A
C2278      C2300   1.498       .  S
C2279      C2280   1.411   1_565  A
C2279      H2284   1.082       .  S
C2280      C2281   1.408       .  A
C2281      C2282   1.405       .  A
C2281      H2285   1.083       .  S
C2282      C2283   1.406       .  A
C2282      C2291   1.489       .  S
C2283      H2286   1.083       .  S
C2287      C2288   1.400       .  A
C2287      C2292   1.412       .  A
C2287      C4372   1.503       .  S
C2288      C2289   1.391       .  A
C2288      H2293   1.085       .  S
C2289      C2290   1.398       .  A
C2289      C2832   1.479       .  S
C2290      C2291   1.410       .  A
C2290      H2294   1.083       .  S
C2291      C2292   1.415       .  A
C2292      H2295   1.082       .  S
C2296      C2297   1.393       .  A
C2296      C2301   1.402       .  A
C2296      C4047   1.482       .  S
C2297      C2298   1.399       .  A
C2297      H2302   1.084       .  S
C2298      C2299   1.411       .  A
C2298      C2846   1.497       .  S
C2299      C2300   1.414       .  A
C2299      H2303   1.082       .  S
C2300      C2301   1.410       .  A
C2301      H2304   1.083       .  S
C2305      C2306   1.395       .  A
C2305      C2310   1.407       .  A
C2305      C3011   1.486       .  S
C2306      C2307   1.395       .  A
C2306      H2311   1.085       .  S
C2307      C2308   1.406       .  A
C2307      C4246   1.488       .  S
C2308      C2309   1.412       .  A
C2308      H2312   1.083       .  S
C2309      C2310   1.413       .  A
C2309      C2316   1.496       .  S
C2310      H2313   1.083       .  S
C2314      C2315   1.409   1_565  A
C2314      C2319   1.408       .  A
C2314      C2336   1.494       .  S
C2315      C2316   1.408       .  A
C2315      H2320   1.083       .  S
C2316      C2317   1.407       .  A
C2317      C2318   1.410       .  A
C2317      H2321   1.083       .  S
C2318      C2319   1.407   1_545  A
C2318      C2325   1.494   1_545  S
C2319      H2322   1.082       .  S
C2323      C2324   1.412       .  A
C2323      C2328   1.400   1_565  A
C2323      C3770   1.502       .  S
C2324      C2325   1.414       .  A
C2324      H2329   1.082       .  S
C2325      C2326   1.408   1_565  A
C2326      C2327   1.400       .  A
C2326      H2330   1.083       .  S
C2327      C2328   1.397       .  A
C2327      C2776   1.483       .  S
C2328      H2331   1.084       .  S
C2332      C2333   1.392       .  A
C2332      C2337   1.403       .  A
C2332      C2815   1.479       .  S
C2333      C2334   1.394       .  A
C2333      H2338   1.085       .  S
C2334      C2335   1.406   1_455  A
C2334      C3294   1.487   1_455  S
C2335      C2336   1.413       .  A
C2335      H2339   1.083       .  S
C2336      C2337   1.412   1_655  A
C2337      H2340   1.083       .  S
O2341     Mg2343   2.114       .  S
O2341     Mg2349   2.133       .  S
O2341      C2376   1.239       .  S
C2342      H2381   1.081       .  S
C2342      O2355   1.240       .  S
C2342      O2379   1.273       .  A
Mg2343     O2372   2.136       .  S
Mg2343     O2387   2.290       .  S
Mg2343     O2383   2.259       .  S
Mg2343     O2354   2.300   1_545  S
O2344     Mg2386   2.136       .  S
O2344     Mg2369   2.116       .  S
O2344      C2365   1.238       .  S
O2345      C2376   1.271   1_565  A
O2345     Mg2369   2.294       .  S
C2346      C3952   1.493       .  S
C2346      O2348   1.272       .  A
C2346      O2360   1.276       .  A
O2347      C2375   1.273       .  A
O2347     Mg2349   2.301       .  S
O2348     Mg2380   2.261   1_565  S
Mg2349     O2355   2.118       .  S
Mg2349     O2363   2.263       .  S
Mg2349     O2351   2.329       .  S
C2350      C3210   1.478       .  S
C2350      O2388   1.272       .  A
C2350      O2356   1.277       .  A
O2351      C2358   1.278       .  A
H2352      C2365   1.081       .  S
C2353      H2378   1.082       .  S
C2353      O2367   1.239       .  S
C2353      O2368   1.272   1_565  A
O2354      C2377   1.273       .  A
O2355     Mg2369   2.133   1_545  S
O2356     Mg2386   2.318       .  S
C2357      C2787   1.495       .  S
C2357      O2370   1.274       .  A
C2357      O2362   1.274       .  A
C2358      C4159   1.482       .  S
C2358      O2385   1.271       .  A
Mg2359     O2366   2.120       .  S
Mg2359     O2367   2.135       .  S
Mg2359     O2360   2.306       .  S
Mg2359     O2361   2.295       .  S
Mg2359     O2388   2.262       .  S
O2361      C2365   1.272       .  A
O2362     Mg2369   2.287       .  S
O2363      C2382   1.273       .  A
O2364      C2384   1.275       .  A
O2364     Mg2380   2.294       .  S
O2366     Mg2380   2.138   1_565  S
O2366      C2377   1.240       .  S
O2367     Mg2386   2.126       .  S
O2368     Mg2380   2.300       .  S
Mg2369     O2385   2.256   1_565  S
O2370     Mg2386   2.273       .  S
H2371      C2376   1.082       .  S
O2372     Mg2380   2.113       .  S
O2372      C2375   1.240       .  S
H2373      C2375   1.082       .  S
H2374      C2377   1.082       .  S
O2379     Mg2386   2.298   1_545  S
C2382      C4484   1.512       .  S
C2382      O2387   1.273       .  A
O2383      C2384   1.271       .  A
C2384      C2773   1.495       .  S
O2389     Mg2391   2.118       .  S
O2389     Mg2397   2.128       .  S
O2389      C2424   1.240       .  S
C2390      H2429   1.081       .  S
C2390      O2403   1.239       .  S
C2390      O2427   1.273       .  A
Mg2391     O2420   2.120       .  S
Mg2391     O2435   2.306       .  S
Mg2391     O2431   2.247       .  S
Mg2391     O2402   2.314       .  S
O2392     Mg2434   2.123       .  S
O2392     Mg2417   2.123       .  S
O2392      C2413   1.240       .  S
O2393      C2424   1.274       .  A
O2393     Mg2417   2.306       .  S
C2394      C2930   1.490       .  S
C2394      O2396   1.269       .  A
C2394      O2408   1.272       .  A
O2395      C2423   1.273       .  A
O2395     Mg2397   2.303       .  S
O2396     Mg2428   2.251       .  S
Mg2397     O2403   2.122       .  S
Mg2397     O2411   2.255       .  S
Mg2397     O2399   2.316       .  S
C2398      C3126   1.489       .  S
C2398      O2436   1.269       .  A
C2398      O2404   1.277       .  A
O2399      C2406   1.274       .  A
H2400      C2413   1.082       .  S
C2401      H2426   1.083       .  S
C2401      O2415   1.240       .  S
C2401      O2416   1.275       .  A
O2402      C2425   1.274       .  A
O2403     Mg2417   2.119       .  S
O2404     Mg2434   2.333       .  S
C2405      C4694   1.508       .  S
C2405      O2418   1.272       .  A
C2405      O2410   1.277       .  A
C2406      C2986   1.511       .  S
C2406      O2433   1.270       .  A
Mg2407     O2414   2.127       .  S
Mg2407     O2415   2.113       .  S
Mg2407     O2408   2.306       .  S
Mg2407     O2409   2.309       .  S
Mg2407     O2436   2.243       .  S
O2409      C2413   1.274       .  A
O2410     Mg2417   2.331       .  S
O2411      C2430   1.271       .  A
O2412      C2432   1.274       .  A
O2412     Mg2428   2.314       .  S
O2414     Mg2428   2.112       .  S
O2414      C2425   1.239       .  S
O2415     Mg2434   2.119       .  S
O2416     Mg2428   2.315       .  S
Mg2417     O2433   2.243       .  S
O2418     Mg2434   2.239       .  S
H2419      C2424   1.081       .  S
O2420     Mg2428   2.125       .  S
O2420      C2423   1.239       .  S
H2421      C2423   1.081       .  S
H2422      C2425   1.083       .  S
O2427     Mg2434   2.303       .  S
C2430      C3462   1.477       .  S
C2430      O2435   1.273       .  A
O2431      C2432   1.269       .  A
C2432      C2759   1.493       .  S
C2437      C2438   1.404       .  A
C2437      C2442   1.393       .  A
C2437      C2958   1.483       .  S
C2438      C2439   1.413       .  A
C2438      H2443   1.083       .  S
C2439      C2440   1.411       .  A
C2439      C2448   1.489       .  S
C2440      C2441   1.403       .  A
C2440      H2444   1.083       .  S
C2441      C2442   1.395       .  A
C2441      C2745   1.484       .  S
C2442      H2445   1.085       .  S
C2446      C2447   1.408       .  A
C2446      C2451   1.406       .  A
C2446      C2466   1.488       .  S
C2447      C2448   1.406       .  A
C2447      H2452   1.083       .  S
C2448      C2449   1.405       .  A
C2449      C2450   1.406       .  A
C2449      H2453   1.084       .  S
C2450      C2451   1.406       .  A
C2450      C2459   1.486       .  S
C2451      H2454   1.083       .  S
C2455      C2456   1.394       .  A
C2455      C2460   1.404       .  A
C2455      C2762   1.482       .  S
C2456      C2457   1.394       .  A
C2456      H2461   1.085       .  S
C2457      C2458   1.403       .  A
C2457      C3420   1.484       .  S
C2458      C2459   1.410       .  A
C2458      H2462   1.083       .  S
C2459      C2460   1.411       .  A
C2460      H2463   1.083       .  S
C2464      C2465   1.396       .  A
C2464      C2469   1.391       .  A
C2464      C5044   1.476       .  S
C2465      C2466   1.407       .  A
C2465      H2470   1.083       .  S
C2466      C2467   1.414       .  A
C2467      C2468   1.414       .  A
C2467      H2471   1.082       .  S
C2468      C2469   1.400       .  A
C2468      C3182   1.503       .  S
C2469      H2472   1.084       .  S
C2473      C2474   1.413       .  A
C2473      C2478   1.399       .  A
C2473      C3308   1.502       .  S
C2474      C2475   1.414       .  A
C2474      H2479   1.082       .  S
C2475      C2476   1.410       .  A
C2475      C2493   1.493       .  S
C2476      C2477   1.398       .  A
C2476      H2480   1.083       .  S
C2477      C2478   1.395       .  A
C2477      C2734   1.481       .  S
C2478      H2481   1.084       .  S
C2482      C2483   1.410       .  A
C2482      C2487   1.398       .  A
C2482      C3532   1.499       .  S
C2483      C2484   1.414       .  A
C2483      H2488   1.081       .  S
C2484      C2485   1.412       .  A
C2484      C2495   1.500       .  S
C2485      C2486   1.405       .  A
C2485      H2489   1.083       .  S
C2486      C2487   1.395       .  A
C2486      C2717   1.491       .  S
C2487      H2490   1.084       .  S
C2491      C2492   1.405       .  A
C2491      C2496   1.408       .  A
C2491      C2502   1.496       .  S
C2492      C2493   1.407       .  A
C2492      H2497   1.083       .  S
C2493      C2494   1.408       .  A
C2494      C2495   1.411       .  A
C2494      H2498   1.082       .  S
C2495      C2496   1.412       .  A
C2496      H2499   1.082       .  S
C2500      C2501   1.406       .  A
C2500      C2505   1.394   1_554  A
C2500      C3714   1.485       .  S
C2501      C2502   1.414       .  A
C2501      H2506   1.083       .  S
C2502      C2503   1.411   1_554  A
C2503      C2504   1.404       .  A
C2503      H2507   1.083       .  S
C2504      C2505   1.395       .  A
C2504      C3406   1.480       .  S
C2505      H2508   1.085       .  S
O2509     Mg2511   2.123       .  S
O2509     Mg2517   2.119       .  S
O2509      C2544   1.239       .  S
C2510      H2549   1.081       .  S
C2510      O2523   1.239       .  S
C2510      O2547   1.273       .  A
Mg2511     O2540   2.110       .  S
Mg2511     O2555   2.304       .  S
Mg2511     O2551   2.248   1_554  S
Mg2511     O2522   2.314   1_554  S
O2512     Mg2554   2.130       .  S
O2512     Mg2537   2.127       .  S
O2512      C2533   1.240       .  S
O2513      C2544   1.274       .  A
O2513     Mg2537   2.314       .  S
C2514      C2706   1.483       .  S
C2514      O2516   1.270   1_554  A
C2514      O2528   1.274       .  A
O2515      C2543   1.275       .  A
O2515     Mg2517   2.312       .  S
O2516     Mg2548   2.247   1_556  S
Mg2517     O2523   2.128       .  S
Mg2517     O2531   2.249       .  S
Mg2517     O2519   2.318       .  S
C2518      C5072   1.487       .  S
C2518      O2556   1.270       .  A
C2518      O2524   1.276       .  A
O2519      C2526   1.274       .  A
H2520      C2533   1.081       .  S
C2521      H2546   1.082       .  S
C2521      O2535   1.240       .  S
C2521      O2536   1.274       .  A
O2522      C2545   1.274       .  A
O2523     Mg2537   2.117       .  S
O2524     Mg2554   2.325       .  S
C2525      C4761   1.501       .  S
C2525      O2538   1.272       .  A
C2525      O2530   1.275       .  A
C2526      C2731   1.501       .  S
C2526      O2553   1.269       .  A
Mg2527     O2534   2.119       .  S
Mg2527     O2535   2.119       .  S
Mg2527     O2528   2.309       .  S
Mg2527     O2529   2.310       .  S
Mg2527     O2556   2.243       .  S
O2529      C2533   1.274       .  A
O2530     Mg2537   2.319       .  S
O2531      C2550   1.270       .  A
O2532      C2552   1.274       .  A
O2532     Mg2548   2.322   1_556  S
O2534     Mg2548   2.118       .  S
O2534      C2545   1.239   1_554  S
O2535     Mg2554   2.122       .  S
O2536     Mg2548   2.308       .  S
Mg2537     O2553   2.252       .  S
O2538     Mg2554   2.241       .  S
H2539      C2544   1.082       .  S
O2540     Mg2548   2.126       .  S
O2540      C2543   1.240       .  S
H2541      C2543   1.082       .  S
H2542      C2545   1.082       .  S
O2547     Mg2554   2.303       .  S
C2550      C2941   1.482       .  S
C2550      O2555   1.273       .  A
O2551      C2552   1.268       .  A
C2552      C2748   1.502       .  S
O2557     Mg2559   2.120       .  S
O2557     Mg2565   2.115       .  S
O2557      C2592   1.240       .  S
C2558      H2597   1.082       .  S
C2558      O2571   1.238       .  S
C2558      O2595   1.274       .  A
Mg2559     O2588   2.127       .  S
Mg2559     O2603   2.329       .  S
Mg2559     O2599   2.256       .  S
Mg2559     O2570   2.297       .  S
O2560     Mg2602   2.127       .  S
O2560     Mg2585   2.127       .  S
O2560      C2581   1.239       .  S
O2561      C2592   1.275       .  A
O2561     Mg2585   2.315       .  S
C2562      C4568   1.477       .  S
C2562      O2564   1.271       .  A
C2562      O2576   1.276       .  A
O2563      C2591   1.273       .  A
O2563     Mg2565   2.302       .  S
O2564     Mg2596   2.250   1_556  S
Mg2565     O2571   2.128       .  S
Mg2565     O2579   2.248       .  S
Mg2565     O2567   2.317       .  S
C2566      C3795   1.481       .  S
C2566      O2604   1.271       .  A
C2566      O2572   1.276       .  A
O2567      C2574   1.274       .  A
H2568      C2581   1.081       .  S
C2569      H2594   1.081       .  S
C2569      O2583   1.240   1_556  S
C2569      O2584   1.274       .  A
O2570      C2593   1.272       .  A
O2571     Mg2585   2.111       .  S
O2572     Mg2602   2.326       .  S
C2573      C2689   1.478       .  S
C2573      O2586   1.271       .  A
C2573      O2578   1.274       .  A
C2574      C3378   1.500       .  S
C2574      O2601   1.269       .  A
Mg2575     O2582   2.121       .  S
Mg2575     O2583   2.123       .  S
Mg2575     O2576   2.320   1_554  S
Mg2575     O2577   2.304       .  S
Mg2575     O2604   2.258       .  S
O2577      C2581   1.274       .  A
O2578     Mg2585   2.314       .  S
O2579      C2598   1.271       .  A
O2580      C2600   1.275       .  A
O2580     Mg2596   2.315       .  S
O2582     Mg2596   2.126       .  S
O2582      C2593   1.239       .  S
O2583     Mg2602   2.119       .  S
O2584     Mg2596   2.298   1_556  S
Mg2585     O2601   2.252       .  S
O2586     Mg2602   2.258       .  S
H2587      C2592   1.082       .  S
O2588     Mg2596   2.120       .  S
O2588      C2591   1.239       .  S
H2589      C2591   1.081       .  S
H2590      C2593   1.081       .  S
O2595     Mg2602   2.308       .  S
C2598      C3585   1.483       .  S
C2598      O2603   1.277       .  A
O2599      C2600   1.272       .  A
C2600      C2720   1.479       .  S
C2605      C2606   1.396       .  A
C2605      C2610   1.408       .  A
C2605      C2804   1.490       .  S
C2606      C2607   1.394   1_565  A
C2606      H2611   1.085       .  S
C2607      C2608   1.403       .  A
C2607      C4064   1.488       .  S
C2608      C2609   1.412   1_545  A
C2608      H2612   1.083       .  S
C2609      C2610   1.414       .  A
C2609      C2616   1.494       .  S
C2610      H2613   1.083       .  S
C2614      C2615   1.411       .  A
C2614      C2619   1.409       .  A
C2614      C2625   1.495       .  S
C2615      C2616   1.408       .  A
C2615      H2620   1.082       .  S
C2616      C2617   1.409   1_565  A
C2617      C2618   1.407       .  A
C2617      H2621   1.083       .  S
C2618      C2619   1.405   1_545  A
C2618      C2636   1.492       .  S
C2619      H2622   1.083       .  S
C2623      C2624   1.403       .  A
C2623      C2628   1.393       .  A
C2623      C3742   1.483       .  S
C2624      C2625   1.412       .  A
C2624      H2629   1.083       .  S
C2625      C2626   1.412       .  A
C2626      C2627   1.410       .  A
C2626      H2630   1.082       .  S
C2627      C2628   1.400       .  A
C2627      C2692   1.499       .  S
C2628      H2631   1.084       .  S
C2632      C2633   1.394   1_554  A
C2632      C2637   1.401       .  A
C2632      C2703   1.480       .  S
C2633      C2634   1.398       .  A
C2633      H2638   1.085       .  S
C2634      C2635   1.410       .  A
C2634      C4999   1.498       .  S
C2635      C2636   1.415   1_556  A
C2635      H2639   1.083       .  S
C2636      C2637   1.410       .  A
C2637      H2640   1.083       .  S
O2641     Mg2643   2.123       .  S
O2641     Mg2649   2.128       .  S
O2641      C2676   1.239       .  S
C2642      H2681   1.082       .  S
C2642      O2655   1.240       .  S
C2642      O2679   1.273       .  A
Mg2643     O2672   2.127       .  S
Mg2643     O2687   2.319       .  S
Mg2643     O2683   2.268       .  S
Mg2643     O2654   2.302       .  S
O2644     Mg2686   2.121       .  S
O2644     Mg2669   2.119       .  S
O2644      C2665   1.239       .  S
O2645      C2676   1.273       .  A
O2645     Mg2669   2.299       .  S
C2646      C3084   1.481       .  S
C2646      O2648   1.270       .  A
C2646      O2660   1.277       .  A
O2647      C2675   1.272       .  A
O2647     Mg2649   2.298       .  S
O2648     Mg2680   2.259       .  S
Mg2649     O2655   2.115       .  S
Mg2649     O2663   2.251       .  S
Mg2649     O2651   2.321       .  S
C2650      C2888   1.511       .  S
C2650      O2688   1.272       .  A
C2650      O2656   1.273       .  A
O2651      C2658   1.276       .  A
H2652      C2665   1.083       .  S
C2653      H2678   1.081       .  S
C2653      O2667   1.239       .  S
C2653      O2668   1.273       .  A
O2654      C2677   1.274       .  A
O2655     Mg2669   2.120       .  S
O2656     Mg2686   2.295       .  S
C2657      C2860   1.511       .  S
C2657      O2670   1.270       .  A
C2657      O2662   1.274       .  A
C2658      C3434   1.479       .  S
C2658      O2685   1.270       .  A
Mg2659     O2666   2.121       .  S
Mg2659     O2667   2.135       .  S
Mg2659     O2660   2.330       .  S
Mg2659     O2661   2.305       .  S
Mg2659     O2688   2.260       .  S
O2661      C2665   1.273       .  A
O2662     Mg2669   2.308       .  S
O2663      C2682   1.271       .  A
O2664      C2684   1.275       .  A
O2664     Mg2680   2.301       .  S
O2666     Mg2680   2.127       .  S
O2666      C2677   1.240       .  S
O2667     Mg2686   2.119       .  S
O2668     Mg2680   2.301       .  S
Mg2669     O2685   2.256       .  S
O2670     Mg2686   2.261       .  S
H2671      C2676   1.081       .  S
O2672     Mg2680   2.117       .  S
O2672      C2675   1.238       .  S
H2673      C2675   1.082       .  S
H2674      C2677   1.082       .  S
O2679     Mg2686   2.307       .  S
C2682      C3504   1.477       .  S
C2682      O2687   1.277       .  A
O2683      C2684   1.273       .  A
C2684      C2916   1.489       .  S
C2689      C2690   1.412       .  A
C2689      C2694   1.405       .  A
C2690      C2691   1.410       .  A
C2690      C2695   1.451       .  S
C2691      C2692   1.416       .  A
C2691      C2698   1.452       .  S
C2692      C2693   1.423       .  A
C2693      C2694   1.411       .  A
C2693      C2696   1.452       .  S
C2694      C2697   1.451       .  S
C2695      N2702   1.157       .  T
C2696      N2701   1.157       .  T
C2697      N2699   1.157       .  T
C2698      N2700   1.157       .  T
C2703      C2704   1.407       .  A
C2703      C2708   1.412       .  A
C2704      C2705   1.407       .  A
C2704      C2709   1.452       .  S
C2705      C2706   1.417       .  A
C2705      C2712   1.452       .  S
C2706      C2707   1.412       .  A
C2707      C2708   1.412       .  A
C2707      C2710   1.450   1_554  S
C2708      C2711   1.450   1_554  S
C2709      N2716   1.157       .  T
C2710      N2715   1.157       .  T
C2711      N2713   1.157       .  T
C2712      N2714   1.157       .  T
C2717      C2718   1.418       .  A
C2717      C2722   1.413       .  A
C2718      C2719   1.413       .  A
C2718      C2723   1.451       .  S
C2719      C2720   1.408       .  A
C2719      C2726   1.450   1_554  S
C2720      C2721   1.413       .  A
C2721      C2722   1.407       .  A
C2721      C2724   1.452       .  S
C2722      C2725   1.452       .  S
C2723      N2730   1.157   1_554  T
C2724      N2729   1.157       .  T
C2725      N2727   1.157       .  T
C2726      N2728   1.157       .  T
C2731      C2732   1.425       .  A
C2731      C2736   1.424       .  A
C2732      C2733   1.405       .  A
C2732      C2737   1.453       .  S
C2733      C2734   1.405       .  A
C2733      C2740   1.453       .  S
C2734      C2735   1.406       .  A
C2735      C2736   1.415       .  A
C2735      C2738   1.450       .  S
C2736      C2739   1.450       .  S
C2737      N2744   1.158       .  T
C2738      N2743   1.157       .  T
C2739      N2741   1.158       .  T
C2740      N2742   1.157       .  T
C2745      C2746   1.409       .  A
C2745      C2750   1.409       .  A
C2746      C2747   1.415       .  A
C2746      C2751   1.451       .  S
C2747      C2748   1.423       .  A
C2747      C2754   1.451       .  S
C2748      C2749   1.425       .  A
C2749      C2750   1.406       .  A
C2749      C2752   1.453       .  S
C2750      C2753   1.455       .  S
C2751      N2758   1.157       .  T
C2752      N2757   1.157       .  T
C2753      N2755   1.157       .  T
C2754      N2756   1.158       .  T
C2759      C2760   1.421       .  A
C2759      C2764   1.419       .  A
C2760      C2761   1.407       .  A
C2760      C2765   1.453       .  S
C2761      C2762   1.409       .  A
C2761      C2768   1.453       .  S
C2762      C2763   1.409       .  A
C2763      C2764   1.413       .  A
C2763      C2766   1.450       .  S
C2764      C2767   1.451       .  S
C2765      N2772   1.158       .  T
C2766      N2771   1.157       .  T
C2767      N2769   1.158       .  T
C2768      N2770   1.157       .  T
C2773      C2774   1.422   1_545  A
C2773      C2778   1.421       .  A
C2774      C2775   1.406       .  A
C2774      C2779   1.453       .  S
C2775      C2776   1.407   1_565  A
C2775      C2782   1.452       .  S
C2776      C2777   1.409       .  A
C2777      C2778   1.414       .  A
C2777      C2780   1.451       .  S
C2778      C2781   1.450       .  S
C2779      N2786   1.158       .  T
C2780      N2785   1.157       .  T
C2781      N2783   1.157       .  T
C2782      N2784   1.157       .  T
C2787      C2788   1.422   1_565  A
C2787      C2792   1.418       .  A
C2788      C2789   1.407       .  A
C2788      C2793   1.453       .  S
C2789      C2790   1.408   1_545  A
C2789      C2796   1.452       .  S
C2790      C2791   1.411       .  A
C2791      C2792   1.415       .  A
C2791      C2794   1.450       .  S
C2792      C2795   1.450       .  S
C2793      N2800   1.157       .  T
C2794      N2799   1.157       .  T
C2795      N2797   1.157       .  T
C2796      N2798   1.157       .  T
C2801      C2802   1.423       .  A
C2801      C2806   1.425   1_565  A
C2802      C2803   1.417       .  A
C2802      C2807   1.451       .  S
C2803      C2804   1.409       .  A
C2803      C2810   1.451       .  S
C2804      C2805   1.409   1_565  A
C2805      C2806   1.409       .  A
C2805      C2808   1.454       .  S
C2806      C2809   1.453       .  S
C2807      N2814   1.158       .  T
C2808      N2813   1.157       .  T
C2809      N2811   1.158       .  T
C2810      N2812   1.157       .  T
C2815      C2816   1.408       .  A
C2815      C2820   1.412       .  A
C2816      C2817   1.407       .  A
C2816      C2821   1.452       .  S
C2817      C2818   1.416       .  A
C2817      C2824   1.452       .  S
C2818      C2819   1.412       .  A
C2819      C2820   1.412       .  A
C2819      C2822   1.450       .  S
C2820      C2823   1.450       .  S
C2821      N2828   1.157       .  T
C2822      N2827   1.157       .  T
C2823      N2825   1.157       .  T
C2824      N2826   1.157       .  T
C2829      C2830   1.418       .  A
C2829      C2834   1.412       .  A
C2830      C2831   1.408       .  A
C2830      C2835   1.452       .  S
C2831      C2832   1.406       .  A
C2831      C2838   1.451       .  S
C2832      C2833   1.412       .  A
C2833      C2834   1.411       .  A
C2833      C2836   1.450       .  S
C2834      C2837   1.450       .  S
C2835      N2842   1.157       .  T
C2836      N2841   1.157       .  T
C2837      N2839   1.157       .  T
C2838      N2840   1.157       .  T
C2843      C2844   1.414       .  A
C2843      C2848   1.406       .  A
C2844      C2845   1.410       .  A
C2844      C2849   1.452       .  S
C2845      C2846   1.414       .  A
C2845      C2852   1.452       .  S
C2846      C2847   1.421       .  A
C2847      C2848   1.412       .  A
C2847      C2850   1.451       .  S
C2848      C2851   1.450       .  S
C2849      N2856   1.157       .  T
C2850      N2855   1.157       .  T
C2851      N2853   1.157       .  T
C2852      N2854   1.157       .  T
C2857      C2858   1.418       .  A
C2857      C2862   1.421       .  A
C2858      C2859   1.415       .  A
C2858      C2863   1.448       .  S
C2859      C2860   1.425       .  A
C2859      C2866   1.454       .  S
C2860      C2861   1.420       .  A
C2861      C2862   1.412       .  A
C2861      C2864   1.454       .  S
C2862      C2865   1.454       .  S
C2863      N2870   1.156       .  T
C2864      N2869   1.158       .  T
C2865      N2867   1.157       .  T
C2866      N2868   1.158       .  T
C2871      C2872   1.413       .  A
C2871      C2876   1.417       .  A
C2872      C2873   1.415       .  A
C2872      C2877   1.448       .  S
C2873      C2874   1.427       .  A
C2873      C2880   1.454       .  S
C2874      C2875   1.425       .  A
C2875      C2876   1.412       .  A
C2875      C2878   1.453       .  S
C2876      C2879   1.455       .  S
C2877      N2884   1.156       .  T
C2878      N2883   1.158       .  T
C2879      N2881   1.158       .  T
C2880      N2882   1.158       .  T
C2885      C2886   1.412       .  A
C2885      C2890   1.413       .  A
C2886      C2887   1.411       .  A
C2886      C2891   1.455       .  S
C2887      C2888   1.428       .  A
C2887      C2894   1.453       .  S
C2888      C2889   1.426       .  A
C2889      C2890   1.414       .  A
C2889      C2892   1.452       .  S
C2890      C2893   1.453       .  S
C2891      N2898   1.157       .  T
C2892      N2897   1.158       .  T
C2893      N2895   1.157       .  T
C2894      N2896   1.158       .  T
C2899      C2900   1.414       .  A
C2899      C2904   1.415       .  A
C2900      C2901   1.414       .  A
C2900      C2905   1.453       .  S
C2901      C2902   1.428       .  A
C2901      C2908   1.452       .  S
C2902      C2903   1.426       .  A
C2903      C2904   1.411       .  A
C2903      C2906   1.453       .  S
C2904      C2907   1.455       .  S
C2905      N2912   1.158       .  T
C2906      N2911   1.158       .  T
C2907      N2909   1.158       .  T
C2908      N2910   1.158       .  T
C2913      C2914   1.407       .  A
C2913      C2918   1.411       .  A
C2914      C2915   1.408       .  A
C2914      C2919   1.453       .  S
C2915      C2916   1.419       .  A
C2915      C2922   1.451       .  S
C2916      C2917   1.415       .  A
C2917      C2918   1.413       .  A
C2917      C2920   1.450       .  S
C2918      C2921   1.450       .  S
C2919      N2926   1.157       .  T
C2920      N2925   1.157       .  T
C2921      N2923   1.157       .  T
C2922      N2924   1.157       .  T
C2927      C2928   1.409       .  A
C2927      C2932   1.408       .  A
C2928      C2929   1.413       .  A
C2928      C2933   1.450       .  S
C2929      C2930   1.418       .  A
C2929      C2936   1.450       .  S
C2930      C2931   1.420       .  A
C2931      C2932   1.406       .  A
C2931      C2934   1.453       .  S
C2932      C2935   1.452       .  S
C2933      N2940   1.157       .  T
C2934      N2939   1.158       .  T
C2935      N2937   1.157       .  T
C2936      N2938   1.157       .  T
C2941      C2942   1.413       .  A
C2941      C2946   1.417       .  A
C2942      C2943   1.411       .  A
C2942      C2947   1.450   1_554  S
C2943      C2944   1.411       .  A
C2943      C2950   1.451   1_554  S
C2944      C2945   1.407       .  A
C2945      C2946   1.407       .  A
C2945      C2948   1.452       .  S
C2946      C2949   1.452       .  S
C2947      N2954   1.157       .  T
C2948      N2953   1.157       .  T
C2949      N2951   1.157       .  T
C2950      N2952   1.157       .  T
C2955      C2956   1.419       .  A
C2955      C2960   1.416       .  A
C2956      C2957   1.409       .  A
C2956      C2961   1.451       .  S
C2957      C2958   1.409       .  A
C2957      C2964   1.453       .  S
C2958      C2959   1.411       .  A
C2959      C2960   1.413       .  A
C2959      C2962   1.451       .  S
C2960      C2963   1.451       .  S
C2961      N2968   1.157       .  T
C2962      N2967   1.157       .  T
C2963      N2965   1.157       .  T
C2964      N2966   1.157       .  T
C2969      C2970   1.419       .  A
C2969      C2974   1.417       .  A
C2970      C2971   1.408       .  A
C2970      C2975   1.452       .  S
C2971      C2972   1.408       .  A
C2971      C2978   1.452       .  S
C2972      C2973   1.410       .  A
C2973      C2974   1.414       .  A
C2973      C2976   1.450   1_655  S
C2974      C2977   1.450   1_655  S
C2975      N2982   1.157       .  T
C2976      N2981   1.157       .  T
C2977      N2979   1.157       .  T
C2978      N2980   1.157       .  T
C2983      C2984   1.405       .  A
C2983      C2988   1.403       .  A
C2984      C2985   1.404       .  A
C2984      C2989   1.454       .  S
C2985      C2986   1.427       .  A
C2985      C2992   1.453       .  S
C2986      C2987   1.432       .  A
C2987      C2988   1.418       .  A
C2987      C2990   1.450       .  S
C2988      C2991   1.449       .  S
C2989      N2996   1.158       .  T
C2990      N2995   1.158       .  T
C2991      N2993   1.157       .  T
C2992      N2994   1.158       .  T
C2997      C2998   1.408       .  A
C2997      C3002   1.410       .  A
C2998      C2999   1.409       .  A
C2998      C3003   1.453       .  S
C2999      C3000   1.419       .  A
C2999      C3006   1.451       .  S
C3000      C3001   1.416       .  A
C3001      C3002   1.413       .  A
C3001      C3004   1.450       .  S
C3002      C3005   1.451       .  S
C3003      N3010   1.157   1_655  T
C3004      N3009   1.157       .  T
C3005      N3007   1.157       .  T
C3006      N3008   1.157       .  T
C3011      C3012   1.414       .  A
C3011      C3016   1.410       .  A
C3012      C3013   1.413       .  A
C3012      C3017   1.450       .  S
C3013      C3014   1.410       .  A
C3013      C3020   1.449       .  S
C3014      C3015   1.416       .  A
C3015      C3016   1.409       .  A
C3015      C3018   1.452       .  S
C3016      C3019   1.452       .  S
C3017      N3024   1.157       .  T
C3018      N3023   1.157       .  T
C3019      N3021   1.157       .  T
C3020      N3022   1.157       .  T
C3025      C3026   1.422       .  A
C3025      C3030   1.422       .  A
C3026      C3027   1.407       .  A
C3026      C3031   1.453       .  S
C3027      C3028   1.408       .  A
C3027      C3034   1.453       .  S
C3028      C3029   1.408       .  A
C3029      C3030   1.416       .  A
C3029      C3032   1.450       .  S
C3030      C3033   1.450       .  S
C3031      N3038   1.158       .  T
C3032      N3037   1.157       .  T
C3033      N3035   1.157       .  T
C3034      N3036   1.157       .  T
C3039      C3040   1.410       .  A
C3039      C3044   1.399   1_655  A
C3040      C3041   1.416       .  A
C3040      C3045   1.451       .  S
C3041      C3042   1.425   1_655  A
C3041      C3048   1.451       .  S
C3042      C3043   1.438       .  A
C3043      C3044   1.411       .  A
C3043      C3046   1.448       .  S
C3044      C3047   1.457       .  S
C3045      N3052   1.157       .  T
C3046      N3051   1.157       .  T
C3047      N3049   1.157       .  T
C3048      N3050   1.158       .  T
C3053      C3054   1.421       .  A
C3053      C3058   1.423       .  A
C3054      C3055   1.414       .  A
C3054      C3059   1.451       .  S
C3055      C3056   1.411       .  A
C3055      C3062   1.452       .  S
C3056      C3057   1.412       .  A
C3057      C3058   1.408       .  A
C3057      C3060   1.454       .  S
C3058      C3061   1.453       .  S
C3059      N3066   1.157       .  T
C3060      N3065   1.157       .  T
C3061      N3063   1.158       .  T
C3062      N3064   1.157       .  T
C3067      C3068   1.406       .  A
C3067      C3072   1.413       .  A
C3068      C3069   1.413       .  A
C3068      C3073   1.451       .  S
C3069      C3070   1.424       .  A
C3069      C3076   1.452       .  S
C3070      C3071   1.416       .  A
C3071      C3072   1.411       .  A
C3071      C3074   1.451       .  S
C3072      C3075   1.452       .  S
C3073      N3080   1.157       .  T
C3074      N3079   1.157       .  T
C3075      N3077   1.157       .  T
C3076      N3078   1.157       .  T
C3081      C3082   1.411       .  A
C3081      C3086   1.416       .  A
C3082      C3083   1.409       .  A
C3082      C3087   1.452       .  S
C3083      C3084   1.414       .  A
C3083      C3090   1.450       .  S
C3084      C3085   1.409       .  A
C3085      C3086   1.414       .  A
C3085      C3088   1.450       .  S
C3086      C3089   1.450       .  S
C3087      N3094   1.157       .  T
C3088      N3093   1.157       .  T
C3089      N3091   1.157       .  T
C3090      N3092   1.157       .  T
C3095      C3096   1.415       .  A
C3095      C3100   1.415       .  A
C3096      C3097   1.407       .  A
C3096      C3101   1.455       .  S
C3097      C3098   1.421       .  A
C3097      C3104   1.449       .  S
C3098      C3099   1.427       .  A
C3099      C3100   1.418       .  A
C3099      C3102   1.452       .  S
C3100      C3103   1.452       .  S
C3101      N3108   1.157       .  T
C3102      N3107   1.158       .  T
C3103      N3105   1.158       .  T
C3104      N3106   1.156       .  T
C3109      C3110   1.411       .  A
C3109      C3114   1.408   1_545  A
C3110      C3111   1.413       .  A
C3110      C3115   1.450       .  S
C3111      C3112   1.412       .  A
C3111      C3118   1.448       .  S
C3112      C3113   1.419   1_545  A
C3113      C3114   1.407       .  A
C3113      C3116   1.453       .  S
C3114      C3117   1.453       .  S
C3115      N3122   1.157       .  T
C3116      N3121   1.157       .  T
C3117      N3119   1.157       .  T
C3118      N3120   1.157       .  T
C3123      C3124   1.408       .  A
C3123      C3128   1.411       .  A
C3124      C3125   1.409       .  A
C3124      C3129   1.452       .  S
C3125      C3126   1.419       .  A
C3125      C3132   1.453       .  S
C3126      C3127   1.412       .  A
C3127      C3128   1.413       .  A
C3127      C3130   1.448       .  S
C3128      C3131   1.450       .  S
C3129      N3136   1.157       .  T
C3130      N3135   1.157       .  T
C3131      N3133   1.157       .  T
C3132      N3134   1.157       .  T
C3137      C3138   1.414       .  A
C3137      C3142   1.421       .  A
C3138      C3139   1.410       .  A
C3138      C3143   1.452       .  S
C3139      C3140   1.413       .  A
C3139      C3146   1.451       .  S
C3140      C3141   1.407       .  A
C3141      C3142   1.413       .  A
C3141      C3144   1.450       .  S
C3142      C3145   1.451       .  S
C3143      N3150   1.157       .  T
C3144      N3149   1.157       .  T
C3145      N3147   1.157       .  T
C3146      N3148   1.157       .  T
C3151      C3152   1.409       .  A
C3151      C3156   1.411       .  A
C3152      C3153   1.408       .  A
C3152      C3157   1.453       .  S
C3153      C3154   1.416       .  A
C3153      C3160   1.449       .  S
C3154      C3155   1.413       .  A
C3155      C3156   1.414       .  A
C3155      C3158   1.448       .  S
C3156      C3159   1.450       .  S
C3157      N3164   1.157       .  T
C3158      N3163   1.157       .  T
C3159      N3161   1.157       .  T
C3160      N3162   1.156       .  T
C3165      C3166   1.414       .  A
C3165      C3170   1.408       .  A
C3166      C3167   1.408       .  A
C3166      C3171   1.452       .  S
C3167      C3168   1.411       .  A
C3167      C3174   1.452       .  S
C3168      C3169   1.416       .  A
C3169      C3170   1.411       .  A
C3169      C3172   1.450       .  S
C3170      C3173   1.450       .  S
C3171      N3178   1.157       .  T
C3172      N3177   1.157       .  T
C3173      N3175   1.157       .  T
C3174      N3176   1.157       .  T
C3179      C3180   1.416       .  A
C3179      C3184   1.422       .  A
C3180      C3181   1.405       .  A
C3180      C3185   1.455       .  S
C3181      C3182   1.420       .  A
C3181      C3188   1.454       .  S
C3182      C3183   1.416       .  A
C3183      C3184   1.417       .  A
C3183      C3186   1.450       .  S
C3184      C3187   1.451       .  S
C3185      N3192   1.158       .  T
C3186      N3191   1.157       .  T
C3187      N3189   1.158       .  T
C3188      N3190   1.157       .  T
C3193      C3194   1.417       .  A
C3193      C3198   1.410       .  A
C3194      C3195   1.408       .  A
C3194      C3199   1.452       .  S
C3195      C3196   1.408       .  A
C3195      C3202   1.452       .  S
C3196      C3197   1.412       .  A
C3197      C3198   1.411       .  A
C3197      C3200   1.450       .  S
C3198      C3201   1.449       .  S
C3199      N3206   1.157       .  T
C3200      N3205   1.157       .  T
C3201      N3203   1.157       .  T
C3202      N3204   1.157       .  T
C3207      C3208   1.417       .  A
C3207      C3212   1.413       .  A
C3208      C3209   1.413       .  A
C3208      C3213   1.450       .  S
C3209      C3210   1.408       .  A
C3209      C3216   1.450       .  S
C3210      C3211   1.412       .  A
C3211      C3212   1.408       .  A
C3211      C3214   1.451       .  S
C3212      C3215   1.453       .  S
C3213      N3220   1.157       .  T
C3214      N3219   1.157       .  T
C3215      N3217   1.157       .  T
C3216      N3218   1.157       .  T
C3221      C3222   1.422       .  A
C3221      C3226   1.415       .  A
C3222      C3223   1.413       .  A
C3222      C3227   1.451       .  S
C3223      C3224   1.406       .  A
C3223      C3230   1.450       .  S
C3224      C3225   1.413       .  A
C3225      C3226   1.409       .  A
C3225      C3228   1.452       .  S
C3226      C3229   1.452       .  S
C3227      N3234   1.157       .  T
C3228      N3233   1.157       .  T
C3229      N3231   1.157       .  T
C3230      N3232   1.157       .  T
C3235      C3236   1.408       .  A
C3235      C3240   1.413       .  A
C3236      C3237   1.412       .  A
C3236      C3241   1.450       .  S
C3237      C3238   1.416       .  A
C3237      C3244   1.450       .  S
C3238      C3239   1.411       .  A
C3239      C3240   1.406       .  A
C3239      C3242   1.453       .  S
C3240      C3243   1.450       .  S
C3241      N3248   1.157       .  T
C3242      N3247   1.157       .  T
C3243      N3245   1.157       .  T
C3244      N3246   1.157       .  T
C3249      C3250   1.411       .  A
C3249      C3254   1.414       .  A
C3250      C3251   1.414       .  A
C3250      C3255   1.449       .  S
C3251      C3252   1.413       .  A
C3251      C3258   1.450       .  S
C3252      C3253   1.410       .  A
C3253      C3254   1.408       .  A
C3253      C3256   1.453       .  S
C3254      C3257   1.449       .  S
C3255      N3262   1.157       .  T
C3256      N3261   1.157       .  T
C3257      N3259   1.157       .  T
C3258      N3260   1.157       .  T
C3263      C3264   1.413       .  A
C3263      C3268   1.407       .  A
C3264      C3265   1.408       .  A
C3264      C3269   1.451       .  S
C3265      C3266   1.414       .  A
C3265      C3272   1.452       .  S
C3266      C3267   1.420       .  A
C3267      C3268   1.412       .  A
C3267      C3270   1.451       .  S
C3268      C3271   1.450       .  S
C3269      N3276   1.157       .  T
C3270      N3275   1.157       .  T
C3271      N3273   1.157       .  T
C3272      N3274   1.157       .  T
C3277      C3278   1.429       .  A
C3277      C3282   1.428       .  A
C3278      C3279   1.417       .  A
C3278      C3283   1.451       .  S
C3279      C3280   1.409       .  A
C3279      C3286   1.452       .  S
C3280      C3281   1.412       .  A
C3281      C3282   1.408       .  A
C3281      C3284   1.456       .  S
C3282      C3285   1.454       .  S
C3283      N3290   1.158       .  T
C3284      N3289   1.157       .  T
C3285      N3287   1.158       .  T
C3286      N3288   1.157       .  T
C3291      C3292   1.407   1_655  A
C3291      C3296   1.414       .  A
C3292      C3293   1.411       .  A
C3292      C3297   1.450       .  S
C3293      C3294   1.418   1_455  A
C3293      C3300   1.451       .  S
C3294      C3295   1.410       .  A
C3295      C3296   1.408       .  A
C3295      C3298   1.452       .  S
C3296      C3299   1.451       .  S
C3297      N3304   1.157       .  T
C3298      N3303   1.157       .  T
C3299      N3301   1.157       .  T
C3300      N3302   1.157       .  T
C3305      C3306   1.403       .  A
C3305      C3310   1.412       .  A
C3306      C3307   1.411       .  A
C3306      C3311   1.452       .  S
C3307      C3308   1.425       .  A
C3307      C3314   1.449       .  S
C3308      C3309   1.417       .  A
C3309      C3310   1.411       .  A
C3309      C3312   1.452       .  S
C3310      C3313   1.451       .  S
C3311      N3318   1.157       .  T
C3312      N3317   1.158       .  T
C3313      N3315   1.157       .  T
C3314      N3316   1.157       .  T
C3319      C3320   1.414       .  A
C3319      C3324   1.419       .  A
C3320      C3321   1.412       .  A
C3320      C3325   1.450       .  S
C3321      C3322   1.412       .  A
C3321      C3328   1.450       .  S
C3322      C3323   1.406       .  A
C3323      C3324   1.408       .  A
C3323      C3326   1.452       .  S
C3324      C3327   1.452       .  S
C3325      N3332   1.157       .  T
C3326      N3331   1.157       .  T
C3327      N3329   1.157       .  T
C3328      N3330   1.157       .  T
C3333      C3334   1.414       .  A
C3333      C3338   1.417       .  A
C3334      C3335   1.416       .  A
C3334      C3339   1.449       .  S
C3335      C3336   1.427       .  A
C3335      C3342   1.452       .  S
C3336      C3337   1.425       .  A
C3337      C3338   1.412       .  A
C3337      C3340   1.453       .  S
C3338      C3341   1.454       .  S
C3339      N3346   1.156       .  T
C3340      N3345   1.157       .  T
C3341      N3343   1.157       .  T
C3342      N3344   1.158       .  T
C3347      C3348   1.412       .  A
C3347      C3352   1.407       .  A
C3348      C3349   1.410       .  A
C3348      C3353   1.451       .  S
C3349      C3350   1.410       .  A
C3349      C3356   1.448       .  S
C3350      C3351   1.419       .  A
C3351      C3352   1.410       .  A
C3351      C3354   1.452       .  S
C3352      C3355   1.451       .  S
C3353      N3360   1.157       .  T
C3354      N3359   1.157       .  T
C3355      N3357   1.157       .  T
C3356      N3358   1.157       .  T
C3361      C3362   1.417       .  A
C3361      C3366   1.425       .  A
C3362      C3363   1.412       .  A
C3362      C3367   1.452       .  S
C3363      C3364   1.412       .  A
C3363      C3370   1.451       .  S
C3364      C3365   1.403       .  A
C3365      C3366   1.411       .  A
C3365      C3368   1.452       .  S
C3366      C3369   1.449       .  S
C3367      N3374   1.157       .  T
C3368      N3373   1.157       .  T
C3369      N3371   1.157       .  T
C3370      N3372   1.157       .  T
C3375      C3376   1.408       .  A
C3375      C3380   1.407       .  A
C3376      C3377   1.415       .  A
C3376      C3381   1.447       .  S
C3377      C3378   1.421       .  A
C3377      C3384   1.451       .  S
C3378      C3379   1.424       .  A
C3379      C3380   1.407       .  A
C3379      C3382   1.453       .  S
C3380      C3383   1.453       .  S
C3381      N3388   1.156       .  T
C3382      N3387   1.158       .  T
C3383      N3385   1.157       .  T
C3384      N3386   1.158       .  T
C3389      C3390   1.406       .  A
C3389      C3394   1.405       .  A
C3390      C3391   1.407       .  A
C3390      C3395   1.453       .  S
C3391      C3392   1.424       .  A
C3391      C3398   1.453       .  S
C3392      C3393   1.426       .  A
C3393      C3394   1.415       .  A
C3393      C3396   1.451       .  S
C3394      C3397   1.450       .  S
C3395      N3402   1.157       .  T
C3396      N3401   1.158       .  T
C3397      N3399   1.157       .  T
C3398      N3400   1.158       .  T
C3403      C3404   1.415       .  A
C3403      C3408   1.418       .  A
C3404      C3405   1.413       .  A
C3404      C3409   1.451       .  S
C3405      C3406   1.410       .  A
C3405      C3412   1.450       .  S
C3406      C3407   1.408       .  A
C3407      C3408   1.407       .  A
C3407      C3410   1.453       .  S
C3408      C3411   1.451       .  S
C3409      N3416   1.157       .  T
C3410      N3415   1.157       .  T
C3411      N3413   1.157       .  T
C3412      N3414   1.157       .  T
C3417      C3418   1.420       .  A
C3417      C3422   1.423       .  A
C3418      C3419   1.412       .  A
C3418      C3423   1.451       .  S
C3419      C3420   1.410       .  A
C3419      C3426   1.452       .  S
C3420      C3421   1.410       .  A
C3421      C3422   1.407       .  A
C3421      C3424   1.454       .  S
C3422      C3425   1.453       .  S
C3423      N3430   1.157       .  T
C3424      N3429   1.157       .  T
C3425      N3427   1.158       .  T
C3426      N3428   1.157       .  T
C3431      C3432   1.418       .  A
C3431      C3436   1.413       .  A
C3432      C3433   1.412       .  A
C3432      C3437   1.448       .  S
C3433      C3434   1.407       .  A
C3433      C3440   1.451       .  S
C3434      C3435   1.413       .  A
C3435      C3436   1.410       .  A
C3435      C3438   1.451       .  S
C3436      C3439   1.452       .  S
C3437      N3444   1.157       .  T
C3438      N3443   1.157       .  T
C3439      N3441   1.157       .  T
C3440      N3442   1.157       .  T
C3445      C3446   1.408       .  A
C3445      C3450   1.410       .  A
C3446      C3447   1.407       .  A
C3446      C3451   1.452       .  S
C3447      C3448   1.420       .  A
C3447      C3454   1.453       .  S
C3448      C3449   1.418       .  A
C3449      C3450   1.414       .  A
C3449      C3452   1.451       .  S
C3450      C3453   1.451       .  S
C3451      N3458   1.157       .  T
C3452      N3457   1.157       .  T
C3453      N3455   1.157       .  T
C3454      N3456   1.157       .  T
C3459      C3460   1.413       .  A
C3459      C3464   1.418       .  A
C3460      C3461   1.408       .  A
C3460      C3465   1.452       .  S
C3461      C3462   1.413       .  A
C3461      C3468   1.452       .  S
C3462      C3463   1.408       .  A
C3463      C3464   1.412       .  A
C3463      C3466   1.450       .  S
C3464      C3467   1.451       .  S
C3465      N3472   1.157       .  T
C3466      N3471   1.157       .  T
C3467      N3469   1.157       .  T
C3468      N3470   1.157       .  T
C3473      C3474   1.427       .  A
C3473      C3478   1.422       .  A
C3474      C3475   1.418       .  A
C3474      C3479   1.451       .  S
C3475      C3476   1.413       .  A
C3475      C3482   1.451       .  S
C3476      C3477   1.411       .  A
C3477      C3478   1.404       .  A
C3477      C3480   1.455       .  S
C3478      C3481   1.449       .  S
C3479      N3486   1.158       .  T
C3480      N3485   1.157       .  T
C3481      N3483   1.156       .  T
C3482      N3484   1.157       .  T
C3487      C3488   1.409       .  A
C3487      C3492   1.410       .  A
C3488      C3489   1.406       .  A
C3488      C3493   1.453       .  S
C3489      C3490   1.417       .  A
C3489      C3496   1.453       .  S
C3490      C3491   1.414       .  A
C3491      C3492   1.412       .  A
C3491      C3494   1.450       .  S
C3492      C3495   1.450       .  S
C3493      N3500   1.157       .  T
C3494      N3499   1.157       .  T
C3495      N3497   1.157       .  T
C3496      N3498   1.157       .  T
C3501      C3502   1.421       .  A
C3501      C3506   1.413       .  A
C3502      C3503   1.411       .  A
C3502      C3507   1.451       .  S
C3503      C3504   1.406       .  A
C3503      C3510   1.450       .  S
C3504      C3505   1.413       .  A
C3505      C3506   1.408       .  A
C3505      C3508   1.451       .  S
C3506      C3509   1.452       .  S
C3507      N3514   1.157       .  T
C3508      N3513   1.157       .  T
C3509      N3511   1.157       .  T
C3510      N3512   1.157       .  T
C3515      C3516   1.412       .  A
C3515      C3520   1.407       .  A
C3516      C3517   1.410       .  A
C3516      C3521   1.449       .  S
C3517      C3518   1.410       .  A
C3517      C3524   1.451       .  S
C3518      C3519   1.415       .  A
C3519      C3520   1.408       .  A
C3519      C3522   1.449       .  S
C3520      C3523   1.452       .  S
C3521      N3528   1.157       .  T
C3522      N3527   1.157       .  T
C3523      N3525   1.157       .  T
C3524      N3526   1.157       .  T
C3529      C3530   1.407       .  A
C3529      C3534   1.412       .  A
C3530      C3531   1.413       .  A
C3530      C3535   1.450       .  S
C3531      C3532   1.422       .  A
C3531      C3538   1.451       .  S
C3532      C3533   1.415       .  A
C3533      C3534   1.410       .  A
C3533      C3536   1.452       .  S
C3534      C3537   1.450       .  S
C3535      N3542   1.157       .  T
C3536      N3541   1.157       .  T
C3537      N3539   1.157       .  T
C3538      N3540   1.157       .  T
C3543      C3544   1.425       .  A
C3543      C3548   1.426       .  A
C3544      C3545   1.404       .  A
C3544      C3549   1.455       .  S
C3545      C3546   1.413       .  A
C3545      C3552   1.455       .  S
C3546      C3547   1.412       .  A
C3547      C3548   1.417       .  A
C3547      C3550   1.452       .  S
C3548      C3551   1.451       .  S
C3549      N3556   1.158       .  T
C3550      N3555   1.157       .  T
C3551      N3553   1.158       .  T
C3552      N3554   1.157       .  T
C3557      C3558   1.409       .  A
C3557      C3562   1.408       .  A
C3558      C3559   1.414       .  A
C3558      C3563   1.451       .  S
C3559      C3560   1.420       .  A
C3559      C3566   1.451       .  S
C3560      C3561   1.422       .  A
C3561      C3562   1.407       .  A
C3561      C3564   1.453       .  S
C3562      C3565   1.454       .  S
C3563      N3570   1.157       .  T
C3564      N3569   1.158       .  T
C3565      N3567   1.157       .  T
C3566      N3568   1.158       .  T
C3571      C3572   1.407       .  A
C3571      C3576   1.412       .  A
C3572      C3573   1.408       .  A
C3572      C3577   1.452       .  S
C3573      C3574   1.421       .  A
C3573      C3580   1.453       .  S
C3574      C3575   1.415       .  A
C3575      C3576   1.413       .  A
C3575      C3578   1.450       .  S
C3576      C3579   1.451       .  S
C3577      N3584   1.157       .  T
C3578      N3583   1.157       .  T
C3579      N3581   1.157       .  T
C3580      N3582   1.158       .  T
C3585      C3586   1.416       .  A
C3585      C3590   1.410       .  A
C3586      C3587   1.408       .  A
C3586      C3591   1.452       .  S
C3587      C3588   1.409       .  A
C3587      C3594   1.452       .  S
C3588      C3589   1.415       .  A
C3589      C3590   1.414       .  A
C3589      C3592   1.450       .  S
C3590      C3593   1.450       .  S
C3591      N3598   1.157       .  T
C3592      N3597   1.157       .  T
C3593      N3595   1.157       .  T
C3594      N3596   1.157       .  T
C3599      C3600   1.408       .  A
C3599      C3604   1.411       .  A
C3600      C3601   1.409       .  A
C3600      C3605   1.453       .  S
C3601      C3602   1.419       .  A
C3601      C3608   1.451       .  S
C3602      C3603   1.415       .  A
C3603      C3604   1.414       .  A
C3603      C3606   1.450       .  S
C3604      C3607   1.450       .  S
C3605      N3612   1.157       .  T
C3606      N3611   1.157       .  T
C3607      N3609   1.157       .  T
C3608      N3610   1.157       .  T
C3613      C3614   1.423       .  A
C3613      C3618   1.420       .  A
C3614      C3615   1.409       .  A
C3614      C3619   1.453       .  S
C3615      C3616   1.409       .  A
C3615      C3622   1.453       .  S
C3616      C3617   1.410       .  A
C3617      C3618   1.416       .  A
C3617      C3620   1.450   1_655  S
C3618      C3621   1.450   1_655  S
C3619      N3626   1.158       .  T
C3620      N3625   1.157       .  T
C3621      N3623   1.157       .  T
C3622      N3624   1.157       .  T
C3627      C3628   1.414       .  A
C3627      C3632   1.407       .  A
C3628      C3629   1.409       .  A
C3628      C3633   1.451       .  S
C3629      C3630   1.413       .  A
C3629      C3636   1.452       .  S
C3630      C3631   1.420       .  A
C3631      C3632   1.413       .  A
C3631      C3634   1.451       .  S
C3632      C3635   1.450       .  S
C3633      N3640   1.157       .  T
C3634      N3639   1.157       .  T
C3635      N3637   1.157       .  T
C3636      N3638   1.157       .  T
C3641      C3642   1.413       .  A
C3641      C3646   1.407       .  A
C3642      C3643   1.409       .  A
C3642      C3647   1.451       .  S
C3643      C3644   1.413       .  A
C3643      C3650   1.452       .  S
C3644      C3645   1.419       .  A
C3645      C3646   1.412       .  A
C3645      C3648   1.451       .  S
C3646      C3649   1.450       .  S
C3647      N3654   1.157       .  T
C3648      N3653   1.157       .  T
C3649      N3651   1.157       .  T
C3650      N3652   1.157       .  T
C3655      C3656   1.412       .  A
C3655      C3660   1.418       .  A
C3656      C3657   1.409       .  A
C3656      C3661   1.452       .  S
C3657      C3658   1.414       .  A
C3657      C3664   1.451       .  S
C3658      C3659   1.407       .  A
C3659      C3660   1.412       .  A
C3659      C3662   1.450       .  S
C3660      C3663   1.450       .  S
C3661      N3668   1.157       .  T
C3662      N3667   1.157       .  T
C3663      N3665   1.157       .  T
C3664      N3666   1.157       .  T
C3669      C3670   1.421       .  A
C3669      C3674   1.418       .  A
C3670      C3671   1.409       .  A
C3670      C3675   1.453       .  S
C3671      C3672   1.410       .  A
C3671      C3678   1.453   1_655  S
C3672      C3673   1.410       .  A
C3673      C3674   1.414       .  A
C3673      C3676   1.451       .  S
C3674      C3677   1.451       .  S
C3675      N3682   1.157       .  T
C3676      N3681   1.157       .  T
C3677      N3679   1.157       .  T
C3678      N3680   1.157       .  T
C3683      C3684   1.408       .  A
C3683      C3688   1.410       .  A
C3684      C3685   1.407       .  A
C3684      C3689   1.453       .  S
C3685      C3686   1.419       .  A
C3685      C3692   1.452       .  S
C3686      C3687   1.415       .  A
C3687      C3688   1.412       .  A
C3687      C3690   1.451       .  S
C3688      C3691   1.450       .  S
C3689      N3696   1.157       .  T
C3690      N3695   1.157       .  T
C3691      N3693   1.157       .  T
C3692      N3694   1.157       .  T
C3697      C3698   1.412       .  A
C3697      C3702   1.403       .  A
C3698      C3699   1.413       .  A
C3698      C3703   1.452       .  S
C3699      C3700   1.421       .  A
C3699      C3706   1.452       .  S
C3700      C3701   1.428       .  A
C3701      C3702   1.413       .  A
C3701      C3704   1.448       .  S
C3702      C3705   1.453       .  S
C3703      N3710   1.157       .  T
C3704      N3709   1.156       .  T
C3705      N3707   1.157       .  T
C3706      N3708   1.158       .  T
C3711      C3712   1.416       .  A
C3711      C3716   1.411       .  A
C3712      C3713   1.409       .  A
C3712      C3717   1.448       .  S
C3713      C3714   1.408       .  A
C3713      C3720   1.453       .  S
C3714      C3715   1.414   1_554  A
C3715      C3716   1.414   1_556  A
C3715      C3718   1.450       .  S
C3716      C3719   1.449   1_554  S
C3717      N3724   1.156       .  T
C3718      N3723   1.157       .  T
C3719      N3721   1.157       .  T
C3720      N3722   1.157       .  T
C3725      C3726   1.423   1_655  A
C3725      C3730   1.424       .  A
C3726      C3727   1.409       .  A
C3726      C3731   1.453       .  S
C3727      C3728   1.412   1_455  A
C3727      C3734   1.454       .  S
C3728      C3729   1.410       .  A
C3729      C3730   1.414       .  A
C3729      C3732   1.452       .  S
C3730      C3733   1.452       .  S
C3731      N3738   1.157       .  T
C3732      N3737   1.157       .  T
C3733      N3735   1.158       .  T
C3734      N3736   1.157       .  T
C3739      C3740   1.418       .  A
C3739      C3744   1.415       .  A
C3740      C3741   1.407       .  A
C3740      C3745   1.453       .  S
C3741      C3742   1.410       .  A
C3741      C3748   1.453       .  S
C3742      C3743   1.410       .  A
C3743      C3744   1.415       .  A
C3743      C3746   1.450   1_554  S
C3744      C3747   1.449   1_554  S
C3745      N3752   1.157       .  T
C3746      N3751   1.157       .  T
C3747      N3749   1.157       .  T
C3748      N3750   1.157       .  T
C3753      C3754   1.407   1_554  A
C3753      C3758   1.413       .  A
C3754      C3755   1.410       .  A
C3754      C3759   1.451       .  S
C3755      C3756   1.417   1_556  A
C3755      C3762   1.450       .  S
C3756      C3757   1.412       .  A
C3757      C3758   1.407       .  A
C3757      C3760   1.452       .  S
C3758      C3761   1.452       .  S
C3759      N3766   1.157       .  T
C3760      N3765   1.157       .  T
C3761      N3763   1.157       .  T
C3762      N3764   1.157       .  T
C3767      C3768   1.411   1_565  A
C3767      C3772   1.404       .  A
C3768      C3769   1.411       .  A
C3768      C3773   1.451       .  S
C3769      C3770   1.417   1_545  A
C3769      C3776   1.451       .  S
C3770      C3771   1.423       .  A
C3771      C3772   1.411       .  A
C3771      C3774   1.449       .  S
C3772      C3775   1.452       .  S
C3773      N3780   1.157       .  T
C3774      N3779   1.156       .  T
C3775      N3777   1.157       .  T
C3776      N3778   1.157       .  T
C3781      C3782   1.410       .  A
C3781      C3786   1.412       .  A
C3782      C3783   1.414       .  A
C3782      C3787   1.452   1_554  S
C3783      C3784   1.423       .  A
C3783      C3790   1.451   1_554  S
C3784      C3785   1.424       .  A
C3785      C3786   1.409       .  A
C3785      C3788   1.453       .  S
C3786      C3789   1.454       .  S
C3787      N3794   1.157       .  T
C3788      N3793   1.158       .  T
C3789      N3791   1.157       .  T
C3790      N3792   1.158       .  T
C3795      C3796   1.412       .  A
C3795      C3800   1.405   1_554  A
C3796      C3797   1.412       .  A
C3796      C3801   1.451       .  S
C3797      C3798   1.417       .  A
C3797      C3804   1.451       .  S
C3798      C3799   1.422   1_554  A
C3799      C3800   1.413       .  A
C3799      C3802   1.449       .  S
C3800      C3803   1.451       .  S
C3801      N3808   1.157       .  T
C3802      N3807   1.157       .  T
C3803      N3805   1.157       .  T
C3804      N3806   1.157       .  T
C3809      C3810   1.424       .  A
C3809      C3814   1.426       .  A
C3810      C3811   1.414       .  A
C3810      C3815   1.451   1_655  S
C3811      C3812   1.410       .  A
C3811      C3818   1.452       .  S
C3812      C3813   1.409       .  A
C3813      C3814   1.408       .  A
C3813      C3816   1.454       .  S
C3814      C3817   1.454       .  S
C3815      N3822   1.158       .  T
C3816      N3821   1.157       .  T
C3817      N3819   1.158       .  T
C3818      N3820   1.157   1_655  T
C3823      C3824   1.411       .  A
C3823      C3828   1.413       .  A
C3824      C3825   1.417       .  A
C3824      C3829   1.451       .  S
C3825      C3826   1.427       .  A
C3825      C3832   1.451       .  S
C3826      C3827   1.426       .  A
C3827      C3828   1.407       .  A
C3827      C3830   1.454       .  S
C3828      C3831   1.455       .  S
C3829      N3836   1.157       .  T
C3830      N3835   1.158       .  T
C3831      N3833   1.157   1_655  T
C3832      N3834   1.158       .  T
C3837      C3838   1.422       .  A
C3837      C3842   1.422       .  A
C3838      C3839   1.407       .  A
C3838      C3843   1.453       .  S
C3839      C3840   1.408       .  A
C3839      C3846   1.452       .  S
C3840      C3841   1.408       .  A
C3841      C3842   1.415       .  A
C3841      C3844   1.451       .  S
C3842      C3845   1.451       .  S
C3843      N3850   1.158       .  T
C3844      N3849   1.157       .  T
C3845      N3847   1.158       .  T
C3846      N3848   1.157   1_655  T
C3851      C3852   1.420       .  A
C3851      C3856   1.419       .  A
C3852      C3853   1.408       .  A
C3852      C3857   1.453       .  S
C3853      C3854   1.409       .  A
C3853      C3860   1.452       .  S
C3854      C3855   1.410       .  A
C3855      C3856   1.415       .  A
C3855      C3858   1.450       .  S
C3856      C3859   1.450       .  S
C3857      N3864   1.157       .  T
C3858      N3863   1.157       .  T
C3859      N3861   1.157       .  T
C3860      N3862   1.157       .  T
C3865      C3866   1.412       .  A
C3865      C3870   1.412       .  A
C3866      C3867   1.415       .  A
C3866      C3871   1.452       .  S
C3867      C3868   1.423       .  A
C3867      C3874   1.451   1_655  S
C3868      C3869   1.425       .  A
C3869      C3870   1.409       .  A
C3869      C3872   1.454       .  S
C3870      C3873   1.454       .  S
C3871      N3878   1.157   1_655  T
C3872      N3877   1.158       .  T
C3873      N3875   1.157       .  T
C3874      N3876   1.158       .  T
C3879      C3880   1.411       .  A
C3879      C3884   1.408       .  A
C3880      C3881   1.413       .  A
C3880      C3885   1.450       .  S
C3881      C3882   1.414       .  A
C3881      C3888   1.450       .  S
C3882      C3883   1.417       .  A
C3883      C3884   1.409       .  A
C3883      C3886   1.450       .  S
C3884      C3887   1.452       .  S
C3885      N3892   1.157       .  T
C3886      N3891   1.157       .  T
C3887      N3889   1.157       .  T
C3888      N3890   1.157       .  T
C3893      C3894   1.419       .  A
C3893      C3898   1.422   1_645  A
C3894      C3895   1.419       .  A
C3894      C3899   1.451       .  S
C3895      C3896   1.420       .  A
C3895      C3902   1.451       .  S
C3896      C3897   1.410   1_655  A
C3897      C3898   1.402   1_545  A
C3897      C3900   1.453   1_545  S
C3898      C3901   1.453       .  S
C3899      N3906   1.158       .  T
C3900      N3905   1.157       .  T
C3901      N3903   1.157       .  T
C3902      N3904   1.158       .  T
C3907      C3908   1.414       .  A
C3907      C3912   1.409       .  A
C3908      C3909   1.408       .  A
C3908      C3913   1.450       .  S
C3909      C3910   1.409       .  A
C3909      C3916   1.452       .  S
C3910      C3911   1.415       .  A
C3911      C3912   1.413       .  A
C3911      C3914   1.450       .  S
C3912      C3915   1.450       .  S
C3913      N3920   1.157       .  T
C3914      N3919   1.157       .  T
C3915      N3917   1.157       .  T
C3916      N3918   1.157       .  T
C3921      C3922   1.424       .  A
C3921      C3926   1.423       .  A
C3922      C3923   1.409       .  A
C3922      C3927   1.453       .  S
C3923      C3924   1.412       .  A
C3923      C3930   1.455       .  S
C3924      C3925   1.411       .  A
C3925      C3926   1.414       .  A
C3925      C3928   1.452       .  S
C3926      C3929   1.452       .  S
C3927      N3934   1.157       .  T
C3928      N3933   1.157       .  T
C3929      N3931   1.158       .  T
C3930      N3932   1.157       .  T
C3935      C3936   1.412       .  A
C3935      C3940   1.414   1_545  A
C3936      C3937   1.417       .  A
C3936      C3941   1.452       .  S
C3937      C3938   1.425       .  A
C3937      C3944   1.451       .  S
C3938      C3939   1.425   1_545  A
C3939      C3940   1.411       .  A
C3939      C3942   1.453       .  S
C3940      C3943   1.454       .  S
C3941      N3948   1.157       .  T
C3942      N3947   1.158       .  T
C3943      N3945   1.157       .  T
C3944      N3946   1.158       .  T
C3949      C3950   1.409       .  A
C3949      C3954   1.409       .  A
C3950      C3951   1.415       .  A
C3950      C3955   1.450       .  S
C3951      C3952   1.419       .  A
C3951      C3958   1.451       .  S
C3952      C3953   1.420       .  A
C3953      C3954   1.407       .  A
C3953      C3956   1.453       .  S
C3954      C3957   1.452       .  S
C3955      N3962   1.157       .  T
C3956      N3961   1.157       .  T
C3957      N3959   1.157       .  T
C3958      N3960   1.157       .  T
C3963      C3964   1.409       .  A
C3963      C3968   1.410       .  A
C3964      C3965   1.418       .  A
C3964      C3969   1.451       .  S
C3965      C3966   1.428       .  A
C3965      C3972   1.451       .  S
C3966      C3967   1.430       .  A
C3967      C3968   1.408       .  A
C3967      C3970   1.454       .  S
C3968      C3971   1.456       .  S
C3969      N3976   1.157       .  T
C3970      N3975   1.158       .  T
C3971      N3973   1.157   1_554  T
C3972      N3974   1.158       .  T
C3977      C3978   1.418       .  A
C3977      C3982   1.422       .  A
C3978      C3979   1.412       .  A
C3978      C3983   1.451       .  S
C3979      C3980   1.411       .  A
C3979      C3986   1.452       .  S
C3980      C3981   1.409       .  A
C3981      C3982   1.409       .  A
C3981      C3984   1.453       .  S
C3982      C3985   1.453       .  S
C3983      N3990   1.157       .  T
C3984      N3989   1.157       .  T
C3985      N3987   1.158       .  T
C3986      N3988   1.157       .  T
C3991      C3992   1.422       .  A
C3991      C3996   1.419       .  A
C3992      C3993   1.410       .  A
C3992      C3997   1.453       .  S
C3993      C3994   1.411       .  A
C3993      C4000   1.453       .  S
C3994      C3995   1.411       .  A
C3995      C3996   1.414       .  A
C3995      C3998   1.451   1_554  S
C3996      C3999   1.451   1_554  S
C3997      N4004   1.158       .  T
C3998      N4003   1.157       .  T
C3999      N4001   1.157       .  T
C4000      N4002   1.157       .  T
C4005      C4006   1.426       .  A
C4005      C4010   1.419       .  A
C4006      C4007   1.412       .  A
C4006      C4011   1.449       .  S
C4007      C4008   1.404       .  A
C4007      C4014   1.452       .  S
C4008      C4009   1.412       .  A
C4009      C4010   1.410       .  A
C4009      C4012   1.452       .  S
C4010      C4013   1.452       .  S
C4011      N4018   1.157       .  T
C4012      N4017   1.157       .  T
C4013      N4015   1.157       .  T
C4014      N4016   1.157       .  T
C4019      C4020   1.419       .  A
C4019      C4024   1.421       .  A
C4020      C4021   1.414       .  A
C4020      C4025   1.451       .  S
C4021      C4022   1.411       .  A
C4021      C4028   1.450       .  S
C4022      C4023   1.411       .  A
C4023      C4024   1.410       .  A
C4023      C4026   1.453       .  S
C4024      C4027   1.452       .  S
C4025      N4032   1.157       .  T
C4026      N4031   1.157   1_554  T
C4027      N4029   1.158       .  T
C4028      N4030   1.157       .  T
C4033      C4034   1.424       .  A
C4033      C4038   1.424       .  A
C4034      C4035   1.415       .  A
C4034      C4039   1.452       .  S
C4035      C4036   1.411       .  A
C4035      C4042   1.452       .  S
C4036      C4037   1.412       .  A
C4037      C4038   1.409       .  A
C4037      C4040   1.454       .  S
C4038      C4041   1.453       .  S
C4039      N4046   1.158       .  T
C4040      N4045   1.157       .  T
C4041      N4043   1.157       .  T
C4042      N4044   1.157       .  T
C4047      C4048   1.408       .  A
C4047      C4052   1.411       .  A
C4048      C4049   1.407       .  A
C4048      C4053   1.453       .  S
C4049      C4050   1.415       .  A
C4049      C4056   1.449       .  S
C4050      C4051   1.413       .  A
C4051      C4052   1.413       .  A
C4051      C4054   1.450       .  S
C4052      C4055   1.450       .  S
C4053      N4060   1.157       .  T
C4054      N4059   1.157       .  T
C4055      N4057   1.157       .  T
C4056      N4058   1.156       .  T
C4061      C4062   1.420       .  A
C4061      C4066   1.422   1_545  A
C4062      C4063   1.413       .  A
C4062      C4067   1.451       .  S
C4063      C4064   1.411       .  A
C4063      C4070   1.452       .  S
C4064      C4065   1.411   1_545  A
C4065      C4066   1.409       .  A
C4065      C4068   1.453       .  S
C4066      C4069   1.453       .  S
C4067      N4074   1.157       .  T
C4068      N4073   1.157       .  T
C4069      N4071   1.158       .  T
C4070      N4072   1.157       .  T
C4075      C4076   1.412       .  A
C4075      C4080   1.417   1_565  A
C4076      C4077   1.412       .  A
C4076      C4081   1.449       .  S
C4077      C4078   1.411       .  A
C4077      C4084   1.450   1_554  S
C4078      C4079   1.406   1_565  A
C4079      C4080   1.408       .  A
C4079      C4082   1.452       .  S
C4080      C4083   1.449       .  S
C4081      N4088   1.157   1_554  T
C4082      N4087   1.157       .  T
C4083      N4085   1.156       .  T
C4084      N4086   1.157       .  T
C4089      C4090   1.413   1_545  A
C4089      C4094   1.407       .  A
C4090      C4091   1.410       .  A
C4090      C4095   1.451       .  S
C4091      C4092   1.413   1_565  A
C4091      C4098   1.451       .  S
C4092      C4093   1.417       .  A
C4093      C4094   1.413       .  A
C4093      C4096   1.449       .  S
C4094      C4097   1.451       .  S
C4095      N4102   1.157       .  T
C4096      N4101   1.157       .  T
C4097      N4099   1.157       .  T
C4098      N4100   1.157       .  T
C4103      C4104   1.415       .  A
C4103      C4108   1.421       .  A
C4104      C4105   1.413       .  A
C4104      C4109   1.450       .  S
C4105      C4106   1.411       .  A
C4105      C4112   1.450       .  S
C4106      C4107   1.407       .  A
C4107      C4108   1.407       .  A
C4107      C4110   1.452       .  S
C4108      C4111   1.453       .  S
C4109      N4116   1.157       .  T
C4110      N4115   1.157       .  T
C4111      N4113   1.158       .  T
C4112      N4114   1.157       .  T
C4117      C4118   1.417       .  A
C4117      C4122   1.419       .  A
C4118      C4119   1.414       .  A
C4118      C4123   1.450       .  S
C4119      C4120   1.410       .  A
C4119      C4126   1.450       .  S
C4120      C4121   1.408       .  A
C4121      C4122   1.406       .  A
C4121      C4124   1.452       .  S
C4122      C4125   1.453       .  S
C4123      N4130   1.157       .  T
C4124      N4129   1.157       .  T
C4125      N4127   1.158       .  T
C4126      N4128   1.157       .  T
C4131      C4132   1.423       .  A
C4131      C4136   1.420       .  A
C4132      C4133   1.407       .  A
C4132      C4137   1.453       .  S
C4133      C4134   1.408       .  A
C4133      C4140   1.454       .  S
C4134      C4135   1.410       .  A
C4135      C4136   1.415       .  A
C4135      C4138   1.450       .  S
C4136      C4139   1.450       .  S
C4137      N4144   1.158       .  T
C4138      N4143   1.157       .  T
C4139      N4141   1.157       .  T
C4140      N4142   1.157       .  T
C4145      C4146   1.421       .  A
C4145      C4150   1.413       .  A
C4146      C4147   1.414       .  A
C4146      C4151   1.451       .  S
C4147      C4148   1.407       .  A
C4147      C4154   1.450       .  S
C4148      C4149   1.414       .  A
C4149      C4150   1.410       .  A
C4149      C4152   1.450       .  S
C4150      C4153   1.452       .  S
C4151      N4158   1.157       .  T
C4152      N4157   1.157   1_565  T
C4153      N4155   1.157   1_565  T
C4154      N4156   1.157       .  T
C4159      C4160   1.407       .  A
C4159      C4164   1.413       .  A
C4160      C4161   1.414       .  A
C4160      C4165   1.450       .  S
C4161      C4162   1.422       .  A
C4161      C4168   1.451       .  S
C4162      C4163   1.416       .  A
C4163      C4164   1.409       .  A
C4163      C4166   1.452       .  S
C4164      C4167   1.452   1_545  S
C4165      N4172   1.157       .  T
C4166      N4171   1.157   1_545  T
C4167      N4169   1.157       .  T
C4168      N4170   1.157       .  T
C4173      C4174   1.421       .  A
C4173      C4178   1.416       .  A
C4174      C4175   1.415       .  A
C4174      C4179   1.451       .  S
C4175      C4176   1.408       .  A
C4175      C4182   1.450       .  S
C4176      C4177   1.413       .  A
C4177      C4178   1.411       .  A
C4177      C4180   1.451       .  S
C4178      C4181   1.452       .  S
C4179      N4186   1.157       .  T
C4180      N4185   1.157       .  T
C4181      N4183   1.157       .  T
C4182      N4184   1.157       .  T
C4187      C4188   1.410   1_565  A
C4187      C4192   1.412       .  A
C4188      C4189   1.410       .  A
C4188      C4193   1.453       .  S
C4189      C4190   1.422   1_545  A
C4189      C4196   1.452       .  S
C4190      C4191   1.418       .  A
C4191      C4192   1.414       .  A
C4191      C4194   1.451       .  S
C4192      C4195   1.451       .  S
C4193      N4200   1.157       .  T
C4194      N4199   1.157       .  T
C4195      N4197   1.157       .  T
C4196      N4198   1.157       .  T
C4201      C4202   1.418   1_565  A
C4201      C4206   1.415       .  A
C4202      C4203   1.409       .  A
C4202      C4207   1.450       .  S
C4203      C4204   1.408   1_545  A
C4203      C4210   1.453       .  S
C4204      C4205   1.411       .  A
C4205      C4206   1.413       .  A
C4205      C4208   1.450       .  S
C4206      C4209   1.450       .  S
C4207      N4214   1.157       .  T
C4208      N4213   1.157       .  T
C4209      N4211   1.157       .  T
C4210      N4212   1.157       .  T
C4215      C4216   1.423       .  A
C4215      C4220   1.429       .  A
C4216      C4217   1.410   1_545  A
C4216      C4221   1.448   1_545  S
C4217      C4218   1.415   1_565  A
C4217      C4224   1.455       .  S
C4218      C4219   1.412       .  A
C4219      C4220   1.417       .  A
C4219      C4222   1.452       .  S
C4220      C4223   1.452       .  S
C4221      N4228   1.156       .  T
C4222      N4227   1.158       .  T
C4223      N4225   1.158       .  T
C4224      N4226   1.157       .  T
C4229      C4230   1.414       .  A
C4229      C4234   1.415       .  A
C4230      C4231   1.414       .  A
C4230      C4235   1.450       .  S
C4231      C4232   1.411       .  A
C4231      C4238   1.450       .  S
C4232      C4233   1.409       .  A
C4233      C4234   1.408       .  A
C4233      C4236   1.453       .  S
C4234      C4237   1.450       .  S
C4235      N4242   1.157       .  T
C4236      N4241   1.157       .  T
C4237      N4239   1.157       .  T
C4238      N4240   1.157       .  T
C4243      C4244   1.414       .  A
C4243      C4248   1.408       .  A
C4244      C4245   1.409       .  A
C4244      C4249   1.450       .  S
C4245      C4246   1.410       .  A
C4245      C4252   1.452       .  S
C4246      C4247   1.416       .  A
C4247      C4248   1.412       .  A
C4247      C4250   1.451       .  S
C4248      C4251   1.450   1_655  S
C4249      N4256   1.157   1_545  T
C4250      N4255   1.157   1_655  T
C4251      N4253   1.157       .  T
C4252      N4254   1.157       .  T
C4257      C4258   1.412       .  A
C4257      C4262   1.417       .  A
C4258      C4259   1.412       .  A
C4258      C4263   1.448       .  S
C4259      C4260   1.411       .  A
C4259      C4266   1.450       .  S
C4260      C4261   1.408       .  A
C4261      C4262   1.411       .  A
C4261      C4264   1.452       .  S
C4262      C4265   1.449       .  S
C4263      N4270   1.157       .  T
C4264      N4269   1.157   1_655  T
C4265      N4267   1.157       .  T
C4266      N4268   1.157       .  T
C4271      C4272   1.411       .  A
C4271      C4276   1.410       .  A
C4272      C4273   1.414       .  A
C4272      C4277   1.452       .  S
C4273      C4274   1.422       .  A
C4273      C4280   1.452       .  S
C4274      C4275   1.424       .  A
C4275      C4276   1.408       .  A
C4275      C4278   1.453       .  S
C4276      C4279   1.454       .  S
C4277      N4284   1.157   1_655  T
C4278      N4283   1.158       .  T
C4279      N4281   1.157       .  T
C4280      N4282   1.158   1_655  T
C4285      C4286   1.416       .  A
C4285      C4290   1.417       .  A
C4286      C4287   1.420       .  A
C4286      C4291   1.450       .  S
C4287      C4288   1.424       .  A
C4287      C4294   1.451       .  S
C4288      C4289   1.415       .  A
C4289      C4290   1.403       .  A
C4289      C4292   1.450       .  S
C4290      C4293   1.454       .  S
C4291      N4298   1.157       .  T
C4292      N4297   1.156       .  T
C4293      N4295   1.157       .  T
C4294      N4296   1.158       .  T
C4299      C4300   1.416       .  A
C4299      C4304   1.423       .  A
C4300      C4301   1.409       .  A
C4300      C4305   1.452       .  S
C4301      C4302   1.412       .  A
C4301      C4308   1.452       .  S
C4302      C4303   1.405       .  A
C4303      C4304   1.411       .  A
C4303      C4306   1.451       .  S
C4304      C4307   1.450       .  S
C4305      N4312   1.157       .  T
C4306      N4311   1.157       .  T
C4307      N4309   1.157       .  T
C4308      N4310   1.157       .  T
C4313      C4314   1.411       .  A
C4313      C4318   1.408       .  A
C4314      C4315   1.414       .  A
C4314      C4319   1.450   1_655  S
C4315      C4316   1.414       .  A
C4315      C4322   1.450       .  S
C4316      C4317   1.417       .  A
C4317      C4318   1.409       .  A
C4317      C4320   1.450       .  S
C4318      C4321   1.453       .  S
C4319      N4326   1.157       .  T
C4320      N4325   1.157       .  T
C4321      N4323   1.157       .  T
C4322      N4324   1.157       .  T
C4327      C4328   1.417       .  A
C4327      C4332   1.413       .  A
C4328      C4329   1.409       .  A
C4328      C4333   1.449       .  S
C4329      C4330   1.407       .  A
C4329      C4336   1.453       .  S
C4330      C4331   1.411       .  A
C4331      C4332   1.414       .  A
C4331      C4334   1.450       .  S
C4332      C4335   1.449       .  S
C4333      N4340   1.156       .  T
C4334      N4339   1.157       .  T
C4335      N4337   1.157       .  T
C4336      N4338   1.157       .  T
C4341      C4342   1.411       .  A
C4341      C4346   1.409       .  A
C4342      C4343   1.413       .  A
C4342      C4347   1.451   1_554  S
C4343      C4344   1.418       .  A
C4343      C4350   1.451   1_554  S
C4344      C4345   1.421       .  A
C4345      C4346   1.409       .  A
C4345      C4348   1.452       .  S
C4346      C4349   1.453       .  S
C4347      N4354   1.157       .  T
C4348      N4353   1.157       .  T
C4349      N4351   1.157       .  T
C4350      N4352   1.157       .  T
C4355      C4356   1.417       .  A
C4355      C4360   1.425       .  A
C4356      C4357   1.410       .  A
C4356      C4361   1.452       .  S
C4357      C4358   1.413       .  A
C4357      C4364   1.452       .  S
C4358      C4359   1.404       .  A
C4359      C4360   1.412       .  A
C4359      C4362   1.451       .  S
C4360      C4363   1.450       .  S
C4361      N4368   1.157       .  T
C4362      N4367   1.157       .  T
C4363      N4365   1.157       .  T
C4364      N4366   1.157       .  T
C4369      C4370   1.417       .  A
C4369      C4374   1.423       .  A
C4370      C4371   1.404       .  A
C4370      C4375   1.453       .  S
C4371      C4372   1.417       .  A
C4371      C4378   1.454       .  S
C4372      C4373   1.416       .  A
C4373      C4374   1.419       .  A
C4373      C4376   1.451       .  S
C4374      C4377   1.451       .  S
C4375      N4382   1.157       .  T
C4376      N4381   1.158       .  T
C4377      N4379   1.158       .  T
C4378      N4380   1.157       .  T
C4383      C4384   1.414       .  A
C4383      C4388   1.407       .  A
C4384      C4385   1.409       .  A
C4384      C4389   1.451       .  S
C4385      C4386   1.413       .  A
C4385      C4392   1.452       .  S
C4386      C4387   1.420       .  A
C4387      C4388   1.412       .  A
C4387      C4390   1.451       .  S
C4388      C4391   1.450       .  S
C4389      N4396   1.157       .  T
C4390      N4395   1.157       .  T
C4391      N4393   1.157       .  T
C4392      N4394   1.157       .  T
C4397      C4398   1.407       .  A
C4397      C4402   1.413       .  A
C4398      C4399   1.412       .  A
C4398      C4403   1.451       .  S
C4399      C4400   1.419       .  A
C4399      C4406   1.451       .  S
C4400      C4401   1.413       .  A
C4401      C4402   1.409       .  A
C4401      C4404   1.452       .  S
C4402      C4405   1.451       .  S
C4403      N4410   1.157       .  T
C4404      N4409   1.157       .  T
C4405      N4407   1.157       .  T
C4406      N4408   1.157       .  T
C4411      C4412   1.411       .  A
C4411      C4416   1.413       .  A
C4412      C4413   1.413       .  A
C4412      C4417   1.443       .  S
C4413      C4414   1.420       .  A
C4413      C4420   1.453       .  S
C4414      C4415   1.427       .  A
C4415      C4416   1.413       .  A
C4415      C4418   1.453       .  S
C4416      C4419   1.454       .  S
C4417      N4424   1.154       .  T
C4418      N4423   1.158       .  T
C4419      N4421   1.157       .  T
C4420      N4422   1.158       .  T
C4425      C4426   1.408       .  A
C4425      C4430   1.411       .  A
C4426      C4427   1.408       .  A
C4426      C4431   1.453       .  S
C4427      C4428   1.422       .  A
C4427      C4434   1.453       .  S
C4428      C4429   1.418       .  A
C4429      C4430   1.415       .  A
C4429      C4432   1.450       .  S
C4430      C4433   1.450       .  S
C4431      N4438   1.157       .  T
C4432      N4437   1.157       .  T
C4433      N4435   1.157       .  T
C4434      N4436   1.158       .  T
C4439      C4440   1.409       .  A
C4439      C4444   1.408       .  A
C4440      C4441   1.414       .  A
C4440      C4445   1.450       .  S
C4441      C4442   1.418       .  A
C4441      C4448   1.450       .  S
C4442      C4443   1.420       .  A
C4443      C4444   1.407       .  A
C4443      C4446   1.452       .  S
C4444      C4447   1.452       .  S
C4445      N4452   1.157       .  T
C4446      N4451   1.157       .  T
C4447      N4449   1.157       .  T
C4448      N4450   1.157       .  T
C4453      C4454   1.412       .  A
C4453      C4458   1.405       .  A
C4454      C4455   1.411       .  A
C4454      C4459   1.452       .  S
C4455      C4456   1.416       .  A
C4455      C4462   1.452       .  S
C4456      C4457   1.422       .  A
C4457      C4458   1.413       .  A
C4457      C4460   1.449       .  S
C4458      C4461   1.451       .  S
C4459      N4466   1.157       .  T
C4460      N4465   1.157       .  T
C4461      N4463   1.157       .  T
C4462      N4464   1.157       .  T
C4467      C4468   1.414       .  A
C4467      C4472   1.412       .  A
C4468      C4469   1.417       .  A
C4468      C4473   1.452       .  S
C4469      C4470   1.425       .  A
C4469      C4476   1.451       .  S
C4470      C4471   1.425       .  A
C4471      C4472   1.406       .  A
C4471      C4474   1.452       .  S
C4472      C4475   1.455       .  S
C4473      N4480   1.157       .  T
C4474      N4479   1.157       .  T
C4475      N4477   1.157       .  T
C4476      N4478   1.158       .  T
C4481      C4482   1.413       .  A
C4481      C4486   1.413       .  A
C4482      C4483   1.413       .  A
C4482      C4487   1.454       .  S
C4483      C4484   1.428       .  A
C4483      C4490   1.453       .  S
C4484      C4485   1.423       .  A
C4485      C4486   1.413       .  A
C4485      C4488   1.453       .  S
C4486      C4489   1.445       .  S
C4487      N4494   1.157       .  T
C4488      N4493   1.158       .  T
C4489      N4491   1.155       .  T
C4490      N4492   1.158       .  T
C4495      C4496   1.417       .  A
C4495      C4500   1.423       .  A
C4496      C4497   1.414       .  A
C4496      C4501   1.451       .  S
C4497      C4498   1.413       .  A
C4497      C4504   1.451       .  S
C4498      C4499   1.409       .  A
C4499      C4500   1.410       .  A
C4499      C4502   1.453       .  S
C4500      C4503   1.453       .  S
C4501      N4508   1.157       .  T
C4502      N4507   1.157       .  T
C4503      N4505   1.158       .  T
C4504      N4506   1.157       .  T
C4509      C4510   1.417       .  A
C4509      C4514   1.414       .  A
C4510      C4511   1.406       .  A
C4510      C4515   1.450       .  S
C4511      C4512   1.408       .  A
C4511      C4518   1.453       .  S
C4512      C4513   1.410       .  A
C4513      C4514   1.413       .  A
C4513      C4516   1.450       .  S
C4514      C4517   1.450       .  S
C4515      N4522   1.157       .  T
C4516      N4521   1.157       .  T
C4517      N4519   1.157       .  T
C4518      N4520   1.157       .  T
C4523      C4524   1.417       .  A
C4523      C4528   1.418       .  A
C4524      C4525   1.414       .  A
C4524      C4529   1.450       .  S
C4525      C4526   1.409       .  A
C4525      C4532   1.450       .  S
C4526      C4527   1.409       .  A
C4527      C4528   1.408       .  A
C4527      C4530   1.453       .  S
C4528      C4531   1.452       .  S
C4529      N4536   1.157       .  T
C4530      N4535   1.157       .  T
C4531      N4533   1.157       .  T
C4532      N4534   1.157       .  T
C4537      C4538   1.409       .  A
C4537      C4542   1.414       .  A
C4538      C4539   1.414       .  A
C4538      C4543   1.450       .  S
C4539      C4540   1.416       .  A
C4539      C4546   1.450       .  S
C4540      C4541   1.411       .  A
C4541      C4542   1.408       .  A
C4541      C4544   1.453       .  S
C4542      C4545   1.450       .  S
C4543      N4550   1.157       .  T
C4544      N4549   1.157       .  T
C4545      N4547   1.157       .  T
C4546      N4548   1.157       .  T
C4551      C4552   1.406       .  A
C4551      C4556   1.413       .  A
C4552      C4553   1.411       .  A
C4552      C4557   1.451       .  S
C4553      C4554   1.422       .  A
C4553      C4560   1.452       .  S
C4554      C4555   1.415       .  A
C4555      C4556   1.409       .  A
C4555      C4558   1.452       .  S
C4556      C4559   1.452       .  S
C4557      N4564   1.157       .  T
C4558      N4563   1.157       .  T
C4559      N4561   1.157       .  T
C4560      N4562   1.157       .  T
C4565      C4566   1.424       .  A
C4565      C4570   1.418       .  A
C4566      C4567   1.412       .  A
C4566      C4571   1.449       .  S
C4567      C4568   1.404       .  A
C4567      C4574   1.451       .  S
C4568      C4569   1.411       .  A
C4569      C4570   1.410       .  A
C4569      C4572   1.451       .  S
C4570      C4573   1.452       .  S
C4571      N4578   1.157       .  T
C4572      N4577   1.157       .  T
C4573      N4575   1.157       .  T
C4574      N4576   1.157       .  T
C4579      C4580   1.408       .  A
C4579      C4584   1.409       .  A
C4580      C4581   1.414       .  A
C4580      C4585   1.450       .  S
C4581      C4582   1.419       .  A
C4581      C4588   1.451       .  S
C4582      C4583   1.420       .  A
C4583      C4584   1.408       .  A
C4583      C4586   1.452       .  S
C4584      C4587   1.452       .  S
C4585      N4592   1.157       .  T
C4586      N4591   1.157       .  T
C4587      N4589   1.157       .  T
C4588      N4590   1.157       .  T
C4593      C4594   1.406       .  A
C4593      C4598   1.412       .  A
C4594      C4595   1.408       .  A
C4594      C4599   1.453       .  S
C4595      C4596   1.417       .  A
C4595      C4602   1.449       .  S
C4596      C4597   1.412       .  A
C4597      C4598   1.412       .  A
C4597      C4600   1.450       .  S
C4598      C4601   1.450       .  S
C4599      N4606   1.157       .  T
C4600      N4605   1.157       .  T
C4601      N4603   1.157       .  T
C4602      N4604   1.156       .  T
C4607      C4608   1.415       .  A
C4607      C4612   1.409       .  A
C4608      C4609   1.409       .  A
C4608      C4613   1.452       .  S
C4609      C4610   1.410       .  A
C4609      C4616   1.452       .  S
C4610      C4611   1.417       .  A
C4611      C4612   1.413       .  A
C4611      C4614   1.451       .  S
C4612      C4615   1.450       .  S
C4613      N4620   1.157       .  T
C4614      N4619   1.157       .  T
C4615      N4617   1.157       .  T
C4616      N4618   1.157       .  T
C4621      C4622   1.413       .  A
C4621      C4626   1.425       .  A
C4622      C4623   1.403       .  A
C4622      C4627   1.450       .  S
C4623      C4624   1.418       .  A
C4623      C4630   1.454       .  S
C4624      C4625   1.416       .  A
C4625      C4626   1.419       .  A
C4625      C4628   1.451       .  S
C4626      C4629   1.451       .  S
C4627      N4634   1.156       .  T
C4628      N4633   1.158       .  T
C4629      N4631   1.158       .  T
C4630      N4632   1.157       .  T
C4635      C4636   1.427       .  A
C4635      C4640   1.425       .  A
C4636      C4637   1.418       .  A
C4636      C4641   1.451       .  S
C4637      C4638   1.414       .  A
C4637      C4644   1.451       .  S
C4638      C4639   1.414       .  A
C4639      C4640   1.406       .  A
C4639      C4642   1.455       .  S
C4640      C4643   1.454       .  S
C4641      N4648   1.158       .  T
C4642      N4647   1.157       .  T
C4643      N4645   1.158       .  T
C4644      N4646   1.158       .  T
C4649      C4650   1.411       .  A
C4649      C4654   1.402       .  A
C4650      C4651   1.412       .  A
C4650      C4655   1.451       .  S
C4651      C4652   1.419       .  A
C4651      C4658   1.451       .  S
C4652      C4653   1.427       .  A
C4653      C4654   1.411       .  A
C4653      C4656   1.450       .  S
C4654      C4657   1.452       .  S
C4655      N4662   1.157       .  T
C4656      N4661   1.157       .  T
C4657      N4659   1.157       .  T
C4658      N4660   1.157       .  T
C4663      C4664   1.420       .  A
C4663      C4668   1.412       .  A
C4664      C4665   1.410       .  A
C4664      C4669   1.452       .  S
C4665      C4666   1.408       .  A
C4665      C4672   1.452       .  S
C4666      C4667   1.411       .  A
C4667      C4668   1.412       .  A
C4667      C4670   1.451       .  S
C4668      C4671   1.448       .  S
C4669      N4676   1.157       .  T
C4670      N4675   1.157       .  T
C4671      N4673   1.157       .  T
C4672      N4674   1.157       .  T
C4677      C4678   1.411       .  A
C4677      C4682   1.418       .  A
C4678      C4679   1.412       .  A
C4678      C4683   1.450       .  S
C4679      C4680   1.413       .  A
C4679      C4686   1.450       .  S
C4680      C4681   1.406       .  A
C4681      C4682   1.409       .  A
C4681      C4684   1.451       .  S
C4682      C4685   1.452       .  S
C4683      N4690   1.157       .  T
C4684      N4689   1.157       .  T
C4685      N4687   1.157       .  T
C4686      N4688   1.157       .  T
C4691      C4692   1.415       .  A
C4691      C4696   1.417       .  A
C4692      C4693   1.402       .  A
C4692      C4697   1.454       .  S
C4693      C4694   1.416       .  A
C4693      C4700   1.449       .  S
C4694      C4695   1.425       .  A
C4695      C4696   1.421       .  A
C4695      C4698   1.451       .  S
C4696      C4699   1.450       .  S
C4697      N4704   1.157       .  T
C4698      N4703   1.158       .  T
C4699      N4701   1.157       .  T
C4700      N4702   1.156       .  T
C4705      C4706   1.418       .  A
C4705      C4710   1.415       .  A
C4706      C4707   1.419       .  A
C4706      C4711   1.451       .  S
C4707      C4708   1.423       .  A
C4707      C4714   1.451       .  S
C4708      C4709   1.415       .  A
C4709      C4710   1.401       .  A
C4709      C4712   1.450       .  S
C4710      C4713   1.454       .  S
C4711      N4718   1.158       .  T
C4712      N4717   1.156       .  T
C4713      N4715   1.157       .  T
C4714      N4716   1.158       .  T
C4719      C4720   1.425       .  A
C4719      C4724   1.422       .  A
C4720      C4721   1.409       .  A
C4720      C4725   1.453       .  S
C4721      C4722   1.409       .  A
C4721      C4728   1.454       .  S
C4722      C4723   1.409       .  A
C4723      C4724   1.416       .  A
C4723      C4726   1.450       .  S
C4724      C4727   1.451       .  S
C4725      N4732   1.158       .  T
C4726      N4731   1.157       .  T
C4727      N4729   1.158       .  T
C4728      N4730   1.157       .  T
C4733      C4734   1.410       .  A
C4733      C4738   1.408       .  A
C4734      C4735   1.416       .  A
C4734      C4739   1.450       .  S
C4735      C4736   1.420       .  A
C4735      C4742   1.450       .  S
C4736      C4737   1.424       .  A
C4737      C4738   1.408       .  A
C4737      C4740   1.453       .  S
C4738      C4741   1.454       .  S
C4739      N4746   1.157       .  T
C4740      N4745   1.158       .  T
C4741      N4743   1.157       .  T
C4742      N4744   1.157       .  T
C4747      C4748   1.406       .  A
C4747      C4752   1.413       .  A
C4748      C4749   1.409       .  A
C4748      C4753   1.451       .  S
C4749      C4750   1.418       .  A
C4749      C4756   1.452       .  S
C4750      C4751   1.410       .  A
C4751      C4752   1.412       .  A
C4751      C4754   1.449       .  S
C4752      C4755   1.450       .  S
C4753      N4760   1.157       .  T
C4754      N4759   1.157       .  T
C4755      N4757   1.157       .  T
C4756      N4758   1.157       .  T
C4761      C4762   1.411       .  A
C4761      C4766   1.421       .  A
C4762      C4763   1.404       .  A
C4762      C4767   1.452       .  S
C4763      C4764   1.422       .  A
C4763      C4770   1.452       .  S
C4764      C4765   1.419       .  A
C4765      C4766   1.419       .  A
C4765      C4768   1.450       .  S
C4766      C4769   1.451       .  S
C4767      N4774   1.157       .  T
C4768      N4773   1.157       .  T
C4769      N4771   1.158       .  T
C4770      N4772   1.157       .  T
C4775      C4776   1.413       .  A
C4775      C4780   1.410       .  A
C4776      C4777   1.413       .  A
C4776      C4781   1.451       .  S
C4777      C4778   1.416       .  A
C4777      C4784   1.451       .  S
C4778      C4779   1.420       .  A
C4779      C4780   1.410       .  A
C4779      C4782   1.452       .  S
C4780      C4783   1.452       .  S
C4781      N4788   1.157       .  T
C4782      N4787   1.157       .  T
C4783      N4785   1.157       .  T
C4784      N4786   1.157       .  T
C4789      C4790   1.421       .  A
C4789      C4794   1.413       .  A
C4790      C4791   1.413       .  A
C4790      C4795   1.451       .  S
C4791      C4792   1.407       .  A
C4791      C4798   1.450       .  S
C4792      C4793   1.414       .  A
C4793      C4794   1.409       .  A
C4793      C4796   1.451       .  S
C4794      C4797   1.452       .  S
C4795      N4802   1.157       .  T
C4796      N4801   1.157       .  T
C4797      N4799   1.157       .  T
C4798      N4800   1.157       .  T
C4803      C4804   1.411       .  A
C4803      C4808   1.414       .  A
C4804      C4805   1.408       .  A
C4804      C4809   1.452       .  S
C4805      C4806   1.415       .  A
C4805      C4812   1.452       .  S
C4806      C4807   1.411       .  A
C4807      C4808   1.413       .  A
C4807      C4810   1.450   1_554  S
C4808      C4811   1.450   1_554  S
C4809      N4816   1.157       .  T
C4810      N4815   1.157       .  T
C4811      N4813   1.157       .  T
C4812      N4814   1.157       .  T
C4817      C4818   1.419       .  A
C4817      C4822   1.427       .  A
C4818      C4819   1.407       .  A
C4818      C4823   1.449       .  S
C4819      C4820   1.416       .  A
C4819      C4826   1.454       .  S
C4820      C4821   1.414       .  A
C4821      C4822   1.416       .  A
C4821      C4824   1.452       .  S
C4822      C4825   1.452       .  S
C4823      N4830   1.156       .  T
C4824      N4829   1.157       .  T
C4825      N4827   1.158       .  T
C4826      N4828   1.158       .  T
C4831      C4832   1.412       .  A
C4831      C4836   1.408       .  A
C4832      C4833   1.412       .  A
C4832      C4837   1.451       .  S
C4833      C4834   1.414       .  A
C4833      C4840   1.451       .  S
C4834      C4835   1.418       .  A
C4835      C4836   1.408       .  A
C4835      C4838   1.451       .  S
C4836      C4839   1.452       .  S
C4837      N4844   1.157       .  T
C4838      N4843   1.157       .  T
C4839      N4841   1.157       .  T
C4840      N4842   1.157       .  T
C4845      C4846   1.418       .  A
C4845      C4850   1.412       .  A
C4846      C4847   1.408       .  A
C4846      C4851   1.449       .  S
C4847      C4848   1.406       .  A
C4847      C4854   1.453       .  S
C4848      C4849   1.412       .  A
C4849      C4850   1.412       .  A
C4849      C4852   1.450       .  S
C4850      C4853   1.450       .  S
C4851      N4858   1.156       .  T
C4852      N4857   1.157       .  T
C4853      N4855   1.157       .  T
C4854      N4856   1.157       .  T
C4859      C4860   1.422       .  A
C4859      C4864   1.420       .  A
C4860      C4861   1.408       .  A
C4860      C4865   1.453       .  S
C4861      C4862   1.410       .  A
C4861      C4868   1.454       .  S
C4862      C4863   1.410       .  A
C4863      C4864   1.413       .  A
C4863      C4866   1.452       .  S
C4864      C4867   1.451       .  S
C4865      N4872   1.158       .  T
C4866      N4871   1.157       .  T
C4867      N4869   1.157       .  T
C4868      N4870   1.157       .  T
C4873      C4874   1.414       .  A
C4873      C4878   1.424       .  A
C4874      C4875   1.406       .  A
C4874      C4879   1.450       .  S
C4875      C4876   1.421       .  A
C4875      C4882   1.453       .  S
C4876      C4877   1.418       .  A
C4877      C4878   1.415       .  A
C4877      C4880   1.452       .  S
C4878      C4881   1.452       .  S
C4879      N4886   1.156       .  T
C4880      N4885   1.158       .  T
C4881      N4883   1.158       .  T
C4882      N4884   1.158       .  T
C4887      C4888   1.422       .  A
C4887      C4892   1.423       .  A
C4888      C4889   1.414       .  A
C4888      C4893   1.451       .  S
C4889      C4890   1.410       .  A
C4889      C4896   1.452       .  S
C4890      C4891   1.411       .  A
C4891      C4892   1.409       .  A
C4891      C4894   1.453       .  S
C4892      C4895   1.453       .  S
C4893      N4900   1.157       .  T
C4894      N4899   1.157       .  T
C4895      N4897   1.158       .  T
C4896      N4898   1.157       .  T
C4901      C4902   1.417       .  A
C4901      C4906   1.415       .  A
C4902      C4903   1.408       .  A
C4902      C4907   1.451       .  S
C4903      C4904   1.408       .  A
C4903      C4910   1.452       .  S
C4904      C4905   1.410       .  A
C4905      C4906   1.413       .  A
C4905      C4908   1.450       .  S
C4906      C4909   1.451       .  S
C4907      N4914   1.157       .  T
C4908      N4913   1.157       .  T
C4909      N4911   1.157       .  T
C4910      N4912   1.157       .  T
C4915      C4916   1.410       .  A
C4915      C4920   1.410       .  A
C4916      C4917   1.409       .  A
C4916      C4921   1.455       .  S
C4917      C4918   1.427       .  A
C4917      C4924   1.454       .  S
C4918      C4919   1.426       .  A
C4919      C4920   1.415       .  A
C4919      C4922   1.451       .  S
C4920      C4923   1.452       .  S
C4921      N4928   1.157       .  T
C4922      N4927   1.158       .  T
C4923      N4925   1.157       .  T
C4924      N4926   1.158       .  T
C4929      C4930   1.413       .  A
C4929      C4934   1.412       .  A
C4930      C4931   1.409       .  A
C4930      C4935   1.455       .  S
C4931      C4932   1.425       .  A
C4931      C4938   1.451       .  S
C4932      C4933   1.429       .  A
C4933      C4934   1.415       .  A
C4933      C4936   1.452       .  S
C4934      C4937   1.453       .  S
C4935      N4942   1.157       .  T
C4936      N4941   1.158       .  T
C4937      N4939   1.158       .  T
C4938      N4940   1.157       .  T
C4943      C4944   1.412       .  A
C4943      C4948   1.420       .  A
C4944      C4945   1.412       .  A
C4944      C4949   1.448   1_655  S
C4945      C4946   1.411       .  A
C4945      C4952   1.450       .  S
C4946      C4947   1.407       .  A
C4947      C4948   1.408       .  A
C4947      C4950   1.452       .  S
C4948      C4951   1.453       .  S
C4949      N4956   1.157       .  T
C4950      N4955   1.157       .  T
C4951      N4953   1.157       .  T
C4952      N4954   1.157       .  T
C4957      C4958   1.408       .  A
C4957      C4962   1.410       .  A
C4958      C4959   1.416       .  A
C4958      C4963   1.451       .  S
C4959      C4960   1.426       .  A
C4959      C4966   1.451       .  S
C4960      C4961   1.426       .  A
C4961      C4962   1.408       .  A
C4961      C4964   1.453       .  S
C4962      C4965   1.455       .  S
C4963      N4970   1.157       .  T
C4964      N4969   1.158       .  T
C4965      N4967   1.157       .  T
C4966      N4968   1.158       .  T
C4971      C4972   1.412       .  A
C4971      C4976   1.408       .  A
C4972      C4973   1.412       .  A
C4972      C4977   1.450   1_655  S
C4973      C4974   1.412       .  A
C4973      C4980   1.450   1_655  S
C4974      C4975   1.416       .  A
C4975      C4976   1.407       .  A
C4975      C4978   1.452       .  S
C4976      C4979   1.452       .  S
C4977      N4984   1.157       .  T
C4978      N4983   1.157       .  T
C4979      N4981   1.157       .  T
C4980      N4982   1.157       .  T
C4985      C4986   1.408       .  A
C4985      C4990   1.411       .  A
C4986      C4987   1.409       .  A
C4986      C4991   1.453       .  S
C4987      C4988   1.418       .  A
C4987      C4994   1.450       .  S
C4988      C4989   1.413       .  A
C4989      C4990   1.413       .  A
C4989      C4992   1.448       .  S
C4990      C4993   1.451       .  S
C4991      N4998   1.157   1_655  T
C4992      N4997   1.157       .  T
C4993      N4995   1.157       .  T
C4994      N4996   1.157       .  T
C4999      C5000   1.414       .  A
C4999      C5004   1.412       .  A
C5000      C5001   1.411       .  A
C5000      C5005   1.454       .  S
C5001      C5002   1.424       .  A
C5001      C5008   1.452       .  S
C5002      C5003   1.426       .  A
C5003      C5004   1.417       .  A
C5003      C5006   1.451       .  S
C5004      C5007   1.452       .  S
C5005      N5012   1.157       .  T
C5006      N5011   1.158       .  T
C5007      N5009   1.157       .  T
C5008      N5010   1.157       .  T
C5013      C5014   1.412       .  A
C5013      C5018   1.404   1_565  A
C5014      C5015   1.411       .  A
C5014      C5019   1.451       .  S
C5015      C5016   1.411       .  A
C5015      C5022   1.449       .  S
C5016      C5017   1.418   1_565  A
C5017      C5018   1.409       .  A
C5017      C5020   1.447       .  S
C5018      C5021   1.452       .  S
C5019      N5026   1.157       .  T
C5020      N5025   1.156       .  T
C5021      N5023   1.157       .  T
C5022      N5024   1.157       .  T
C5027      C5028   1.428       .  A
C5027      C5032   1.422       .  A
C5028      C5029   1.417       .  A
C5028      C5033   1.452       .  S
C5029      C5030   1.414       .  A
C5029      C5036   1.452       .  S
C5030      C5031   1.415       .  A
C5031      C5032   1.409       .  A
C5031      C5034   1.455       .  S
C5032      C5035   1.449       .  S
C5033      N5040   1.158       .  T
C5034      N5039   1.157       .  T
C5035      N5037   1.156       .  T
C5036      N5038   1.157       .  T
C5041      C5042   1.419       .  A
C5041      C5046   1.412       .  A
C5042      C5043   1.407       .  A
C5042      C5047   1.448       .  S
C5043      C5044   1.404       .  A
C5043      C5050   1.453       .  S
C5044      C5045   1.411       .  A
C5045      C5046   1.410       .  A
C5045      C5048   1.451       .  S
C5046      C5049   1.449       .  S
C5047      N5054   1.156       .  T
C5048      N5053   1.157       .  T
C5049      N5051   1.157       .  T
C5050      N5052   1.157       .  T
C5055      C5056   1.425       .  A
C5055      C5060   1.421       .  A
C5056      C5057   1.410       .  A
C5056      C5061   1.453       .  S
C5057      C5058   1.411       .  A
C5057      C5064   1.454       .  S
C5058      C5059   1.413       .  A
C5059      C5060   1.414       .  A
C5059      C5062   1.452       .  S
C5060      C5063   1.452       .  S
C5061      N5068   1.158       .  T
C5062      N5067   1.157       .  T
C5063      N5065   1.158       .  T
C5064      N5066   1.157       .  T
C5069      C5070   1.411       .  A
C5069      C5074   1.408       .  A
C5070      C5071   1.412       .  A
C5070      C5075   1.450       .  S
C5071      C5072   1.413       .  A
C5071      C5078   1.449       .  S
C5072      C5073   1.419       .  A
C5073      C5074   1.408       .  A
C5073      C5076   1.453       .  S
C5074      C5077   1.452       .  S
C5075      N5082   1.157       .  T
C5076      N5081   1.158       .  T
C5077      N5079   1.157   1_554  T
C5078      N5080   1.157       .  T
C5083      C5084   1.425       .  A
C5083      C5088   1.421       .  A
C5084      C5085   1.412       .  A
C5084      C5089   1.453       .  S
C5085      C5086   1.412       .  A
C5085      C5092   1.454       .  S
C5086      C5087   1.409       .  A
C5087      C5088   1.413       .  A
C5087      C5090   1.446       .  S
C5088      C5091   1.452   1_554  S
C5089      N5096   1.158       .  T
C5090      N5095   1.155   1_554  T
C5091      N5093   1.158       .  T
C5092      N5094   1.157       .  T
C5097      C5098   1.411       .  A
C5097      C5102   1.412       .  A
C5098      C5099   1.410       .  A
C5098      C5103   1.454   1_554  S
C5099      C5100   1.424       .  A
C5099      C5106   1.453   1_554  S
C5100      C5101   1.423       .  A
C5101      C5102   1.414       .  A
C5101      C5104   1.452       .  S
C5102      C5105   1.452       .  S
C5103      N5110   1.157       .  T
C5104      N5109   1.158       .  T
C5105      N5107   1.157       .  T
C5106      N5108   1.158       .  T
C5111      C5112   1.413       .  A
C5111      C5116   1.412       .  A
C5112      C5113   1.406       .  A
C5112      C5117   1.455       .  S
C5113      C5114   1.422       .  A
C5113      C5120   1.451       .  S
C5114      C5115   1.424       .  A
C5115      C5116   1.417       .  A
C5115      C5118   1.452       .  S
C5116      C5119   1.445       .  S
C5117      N5124   1.157       .  T
C5118      N5123   1.158       .  T
C5119      N5121   1.155       .  T
C5120      N5122   1.157       .  T
C5125      C5126   1.408       .  A
C5125      C5130   1.410       .  A
C5126      C5127   1.407       .  A
C5126      C5131   1.453       .  S
C5127      C5128   1.421       .  A
C5127      C5134   1.453       .  S
C5128      C5129   1.418       .  A
C5129      C5130   1.415       .  A
C5129      C5132   1.450       .  S
C5130      C5133   1.450       .  S
C5131      N5138   1.157       .  T
C5132      N5137   1.157       .  T
C5133      N5135   1.157       .  T
C5134      N5136   1.158       .  T
C5139      C5140   1.414       .  A
C5139      C5144   1.421       .  A
C5140      C5141   1.410       .  A
C5140      C5145   1.452       .  S
C5141      C5142   1.413       .  A
C5141      C5148   1.451       .  S
C5142      C5143   1.406       .  A
C5143      C5144   1.412       .  A
C5143      C5146   1.451       .  S
C5144      C5147   1.451       .  S
C5145      N5152   1.157       .  T
C5146      N5151   1.157       .  T
C5147      N5149   1.157       .  T
C5148      N5150   1.157       .  T
C5153      C5154   1.411       .  A
C5153      C5158   1.418       .  A
C5154      C5155   1.409       .  A
C5154      C5159   1.452       .  S
C5155      C5156   1.414       .  A
C5155      C5162   1.450       .  S
C5156      C5157   1.407       .  A
C5157      C5158   1.412       .  A
C5157      C5160   1.450       .  S
C5158      C5161   1.451       .  S
C5159      N5166   1.157       .  T
C5160      N5165   1.157       .  T
C5161      N5163   1.157       .  T
C5162      N5164   1.157   1_565  T
C5167      C5168   1.418       .  A
C5167      C5172   1.412   1_545  A
C5168      C5169   1.412       .  A
C5168      C5173   1.451       .  S
C5169      C5170   1.408       .  A
C5169      C5176   1.450       .  S
C5170      C5171   1.413       .  A
C5171      C5172   1.409   1_545  A
C5171      C5174   1.450   1_545  S
C5172      C5175   1.452       .  S
C5173      N5180   1.157       .  T
C5174      N5179   1.157       .  T
C5175      N5177   1.157       .  T
C5176      N5178   1.157       .  T
C5181      C5182   1.411   1_565  A
C5181      C5186   1.417       .  A
C5182      C5183   1.409       .  A
C5182      C5187   1.452       .  S
C5183      C5184   1.414   1_545  A
C5183      C5190   1.452       .  S
C5184      C5185   1.409       .  A
C5185      C5186   1.413       .  A
C5185      C5188   1.450       .  S
C5186      C5189   1.450       .  S
C5187      N5194   1.157       .  T
C5188      N5193   1.157       .  T
C5189      N5191   1.157       .  T
C5190      N5192   1.157       .  T
C5195      C5196   1.414       .  A
C5195      C5200   1.421       .  A
C5196      C5197   1.410       .  A
C5196      C5201   1.452       .  S
C5197      C5198   1.413       .  A
C5197      C5204   1.451       .  S
C5198      C5199   1.407       .  A
C5199      C5200   1.413       .  A
C5199      C5202   1.450       .  S
C5200      C5203   1.451       .  S
C5201      N5208   1.157       .  T
C5202      N5207   1.157       .  T
C5203      N5205   1.157       .  T
C5204      N5206   1.157   1_545  T
C5209      C5210   1.408       .  A
C5209      C5214   1.413       .  A
C5210      C5211   1.414       .  A
C5210      C5215   1.450       .  S
C5211      C5212   1.419       .  A
C5211      C5218   1.451       .  S
C5212      C5213   1.414       .  A
C5213      C5214   1.410       .  A
C5213      C5216   1.452       .  S
C5214      C5217   1.451       .  S
C5215      N5222   1.157       .  T
C5216      N5221   1.157       .  T
C5217      N5219   1.157       .  T
C5218      N5220   1.157       .  T
C5223      C5224   1.410       .  A
C5223      C5228   1.410       .  A
C5224      C5225   1.408       .  A
C5224      C5229   1.453       .  S
C5225      C5226   1.427       .  A
C5225      C5232   1.454       .  S
C5226      C5227   1.427       .  A
C5227      C5228   1.417       .  A
C5227      C5230   1.450       .  S
C5228      C5231   1.452       .  S
C5229      N5236   1.157       .  T
C5230      N5235   1.157       .  T
C5231      N5233   1.157       .  T
C5232      N5234   1.158       .  T
C5237      C5238   1.426       .  A
C5237      C5242   1.426       .  A
C5238      C5239   1.414       .  A
C5238      C5243   1.450       .  S
C5239      C5240   1.408       .  A
C5239      C5246   1.452       .  S
C5240      C5241   1.409       .  A
C5241      C5242   1.408       .  A
C5241      C5244   1.454       .  S
C5242      C5245   1.453       .  S
C5243      N5250   1.157       .  T
C5244      N5249   1.157       .  T
C5245      N5247   1.157       .  T
C5246      N5248   1.157       .  T
C5251      C5252   1.416       .  A
C5251      C5256   1.419       .  A
C5252      C5253   1.413       .  A
C5252      C5257   1.449       .  S
C5253      C5254   1.410       .  A
C5253      C5260   1.450       .  S
C5254      C5255   1.408       .  A
C5255      C5256   1.408       .  A
C5255      C5258   1.452       .  S
C5256      C5259   1.452       .  S
C5257      N5264   1.157       .  T
C5258      N5263   1.157       .  T
C5259      N5261   1.157       .  T
C5260      N5262   1.157       .  T
C5265      C5266   1.427       .  A
C5265      C5270   1.430       .  A
C5266      C5267   1.408       .  A
C5266      C5271   1.453       .  S
C5267      C5268   1.413       .  A
C5267      C5274   1.455       .  S
C5268      C5269   1.409       .  A
C5269      C5270   1.416       .  A
C5269      C5272   1.451       .  S
C5270      C5273   1.452       .  S
C5271      N5278   1.157       .  T
C5272      N5277   1.157       .  T
C5273      N5275   1.158       .  T
C5274      N5276   1.157       .  T
C5279      C5280   1.429       .  A
C5279      C5284   1.428       .  A
C5280      C5281   1.417       .  A
C5280      C5285   1.451       .  S
C5281      C5282   1.409       .  A
C5281      C5288   1.451       .  S
C5282      C5283   1.412       .  A
C5283      C5284   1.409       .  A
C5283      C5286   1.456       .  S
C5284      C5287   1.453       .  S
C5285      N5292   1.157       .  T
C5286      N5291   1.157       .  T
C5287      N5289   1.158       .  T
C5288      N5290   1.157       .  T
C5293      C5294   1.411       .  A
C5293      C5298   1.411       .  A
C5294      C5295   1.414       .  A
C5294      C5299   1.451       .  S
C5295      C5296   1.420       .  A
C5295      C5302   1.451       .  S
C5296      C5297   1.422       .  A
C5297      C5298   1.408       .  A
C5297      C5300   1.453       .  S
C5298      C5301   1.454       .  S
C5299      N5306   1.157       .  T
C5300      N5305   1.158       .  T
C5301      N5303   1.157       .  T
C5302      N5304   1.157       .  T
C5307      C5308   1.409       .  A
C5307      C5312   1.411       .  A
C5308      C5309   1.409       .  A
C5308      C5313   1.453       .  S
C5309      C5310   1.420       .  A
C5309      C5316   1.451       .  S
C5310      C5311   1.415       .  A
C5311      C5312   1.414       .  A
C5311      C5314   1.448       .  S
C5312      C5315   1.451       .  S
C5313      N5320   1.157       .  T
C5314      N5319   1.157       .  T
C5315      N5317   1.157       .  T
C5316      N5318   1.157       .  T
C5321      C5322   1.411       .  A
C5321      C5326   1.416       .  A
C5322      C5323   1.409       .  A
C5322      C5327   1.452       .  S
C5323      C5324   1.414       .  A
C5323      C5330   1.450       .  S
C5324      C5325   1.409       .  A
C5325      C5326   1.414       .  A
C5325      C5328   1.450       .  S
C5326      C5329   1.450       .  S
C5327      N5334   1.157       .  T
C5328      N5333   1.157       .  T
C5329      N5331   1.157       .  T
C5330      N5332   1.157       .  T
C5335      C5336   1.419       .  A
C5335      C5340   1.414       .  A
C5336      C5337   1.413       .  A
C5336      C5341   1.451       .  S
C5337      C5338   1.407       .  A
C5337      C5344   1.450       .  S
C5338      C5339   1.413       .  A
C5339      C5340   1.408       .  A
C5339      C5342   1.451       .  S
C5340      C5343   1.452       .  S
C5341      N5348   1.157       .  T
C5342      N5347   1.157       .  T
C5343      N5345   1.157       .  T
C5344      N5346   1.157       .  T
C5349      C5350   1.411       .  A
C5349      C5354   1.406       .  A
C5350      C5351   1.412       .  A
C5350      C5355   1.451       .  S
C5351      C5352   1.414       .  A
C5351      C5358   1.451       .  S
C5352      C5353   1.419       .  A
C5353      C5354   1.408       .  A
C5353      C5356   1.450       .  S
C5354      C5357   1.453       .  S
C5355      N5362   1.157       .  T
C5356      N5361   1.157       .  T
C5357      N5359   1.157       .  T
C5358      N5360   1.157       .  T
C5363      C5364   1.413       .  A
C5363      C5368   1.410       .  A
C5364      C5365   1.407       .  A
C5364      C5369   1.456       .  S
C5365      C5366   1.427       .  A
C5365      C5372   1.454       .  S
C5366      C5367   1.429       .  A
C5367      C5368   1.418       .  A
C5367      C5370   1.451       .  S
C5368      C5371   1.452       .  S
C5369      N5376   1.157       .  T
C5370      N5375   1.158       .  T
C5371      N5373   1.157       .  T
C5372      N5374   1.158       .  T
