geometry optimzed in LAMMPS
_audit_creation_date              2020-11-30 
_audit_creation_method            'lammps2cif' 
_symmetry_space_group_name_H-M    'P1' 
_symmetry_Int_Tables_number       1 
_symmetry_cell_setting            triclinic 
loop_ 
_symmetry_equiv_pos_as_xyz 
  x,y,z 
_cell_length_a                    55.44849067 
_cell_length_b                    54.7289067822895 
_cell_length_c                    24.523556614189193 
_cell_angle_alpha                 88.61842947626195 
_cell_angle_beta                  88.48386077654291 
_cell_angle_gamma                 122.61416103702346 
loop_ 
_atom_site_label 
_atom_site_type_symbol 
_atom_site_fract_x 
_atom_site_fract_y 
_atom_site_fract_z 
_atom_site_charge 
O1          O  0.78462383  0.28849691  0.19775496    -0.71500
O2          O  0.73323621  0.23552741  0.31162743    -0.71700
O3          O  0.73259788  0.23980236  0.20189822    -0.71600
O4          O  0.78644590  0.28534153  0.30698770    -0.71600
O5          O  0.76653957  0.30999370  0.31539902    -0.71500
O6          O  0.71399701  0.26580363  0.20856355    -0.71500
O7          O  0.71367503  0.26062974  0.31768024    -0.71500
O8          O  0.76597041  0.31431472  0.20649187    -0.71700
V9          V  0.75884811  0.26273152  0.25504414     1.35200
V10         V  0.74040137  0.28713817  0.26224304     1.35200
C11         C  0.78373535  0.31019482  0.18189520     0.77800
C12         C  0.71390807  0.23846687  0.33292003     0.77800
C13         C  0.71481406  0.24580730  0.18577565     0.77700
C14         C  0.78641073  0.30628211  0.32762707     0.77700
N15         N  0.54380871  0.88121310  0.26296952    -0.03200
C16         C  0.55443703  0.90979640  0.27102598    -0.00600
C17         C  0.57206255  0.92684343  0.22669100    -0.23500
C18         C  0.57212555  0.90855689  0.18983476    -0.23700
C19         C  0.55484744  0.88094945  0.21299032    -0.00700
H20         H  0.58141108  0.94990697  0.21952153     0.13100
H21         H  0.58259257  0.91456320  0.14950795     0.13100
N22         N  0.39424347  0.84078722  0.26224514    -0.03200
C23         C  0.42078946  0.86490122  0.26600259    -0.00600
C24         C  0.43629762  0.87097200  0.21706089    -0.23500
C25         C  0.41846841  0.85039220  0.18174892    -0.23700
C26         C  0.39261430  0.83202312  0.21033548    -0.00700
H27         H  0.45719123  0.89015135  0.20640014     0.13100
H28         H  0.42298662  0.85105823  0.13839370     0.13100
N29         N  0.45397749  0.10861571  0.35967346    -0.03200
C30         C  0.44714394  0.08131718  0.37463053    -0.00600
C31         C  0.42500824  0.06115044  0.34378565    -0.23500
C32         C  0.42018617  0.07625126  0.30516785    -0.23700
C33         C  0.43853809  0.10518381  0.31504085    -0.00700
H34         H  0.41693890  0.03821291  0.34294832     0.13100
H35         H  0.40615298  0.06714664  0.27152536     0.13100
N36         N  0.62720849  0.15896673  0.49497971    -0.03200
C37         C  0.59987089  0.13640448  0.48919131    -0.00600
C38         C  0.58273960  0.13834887  0.03428624    -0.23500
C39         C  0.60091525  0.16045000  0.06621667    -0.23700
C40         C  0.62767521  0.17332615  0.04072675    -0.00700
H41         H  0.56043333  0.12211924  0.04472621     0.13100
H42         H  0.59561407  0.16530718  0.10560170     0.13100
C43         C  0.51519713  0.97696370  0.37283802     0.02600
C44         C  0.48625171  0.96926630  0.37593849     0.02600
C45         C  0.48045967  0.99056972  0.38865328    -0.18000
C46         C  0.50256516  0.01942169  0.39627310     0.02600
C47         C  0.53126943  0.02667545  0.39728192     0.02600
C48         C  0.53711151  0.00515932  0.38604452    -0.18000
H49         H  0.55913851  0.01090462  0.38467311     0.04600
H50         H  0.45853662  0.98512529  0.38901396     0.04600
O51         O  0.20734623  0.47521640  0.10324368    -0.71500
O52         O  0.26620377  0.47960133  0.01161142    -0.71700
O53         O  0.25850617  0.48235851  0.11957030    -0.71600
O54         O  0.21493797  0.47226167  0.99569023    -0.71600
O55         O  0.23388813  0.51876296  0.98820591    -0.71500
O56         O  0.28041494  0.52909314  0.10771405    -0.71500
O57         O  0.28543845  0.52594476  0.99908779    -0.71500
O58         O  0.22894916  0.52210225  0.09679424    -0.71700
V59         V  0.23717035  0.47826404  0.05738342     1.35200
V60         V  0.25680487  0.52309497  0.04807466     1.35200
C61         C  0.20827220  0.49794694  0.11635011     0.77800
C62         C  0.28566531  0.50353127  0.98875077     0.77800
C63         C  0.27721558  0.50738770  0.13447815     0.77700
C64         C  0.21625672  0.49369911  0.97176661     0.77700
O65         O  0.23132851  0.75612814  0.94662353    -0.71500
O66         O  0.28323012  0.78342211  0.06180753    -0.71700
O67         O  0.28858262  0.79224006  0.95237691    -0.71600
O68         O  0.22609998  0.74732148  0.05550775    -0.71600
O69         O  0.23108800  0.71088063  0.04810358    -0.71500
O70         O  0.29347732  0.75576937  0.94475849    -0.71500
O71         O  0.28841946  0.74709040  0.05358030    -0.71500
O72         O  0.23636532  0.71972112  0.93917944    -0.71700
V73         V  0.25742759  0.76909055  0.00400004     1.35200
V74         V  0.26224490  0.73408553  0.99656657     1.35200
C75         C  0.22464296  0.73297486  0.92363284     0.77800
C76         C  0.29498719  0.77012775  0.07685798     0.77800
C77         C  0.30180411  0.78168570  0.93079097     0.77700
C78         C  0.21759584  0.72131166  0.06896647     0.77700
N79         N  0.12442190  0.48056444  0.28070046    -0.03200
C80         C  0.09638943  0.47169738  0.27894991    -0.00600
C81         C  0.08179191  0.45670132  0.32715631    -0.23500
C82         C  0.10133259  0.45625314  0.35960346    -0.23700
C83         C  0.12720469  0.47089885  0.33012439    -0.00700
H84         H  0.05989981  0.44929651  0.33933515     0.13100
H85         H  0.09753955  0.44785284  0.40146422     0.13100
N86         N  0.12740581  0.65891598  0.23502769    -0.03200
C87         C  0.09864497  0.64407988  0.22874470    -0.00600
C88         C  0.08629964  0.65486276  0.26241954    -0.23500
C89         C  0.10739910  0.67495204  0.29383656    -0.23700
C90         C  0.13202033  0.67626331  0.27742335    -0.00700
H91         H  0.06357917  0.64559287  0.26985947     0.13100
H92         H  0.10458277  0.68548751  0.32796983     0.13100
N93         N  0.87351074  0.39095343  0.46230728    -0.03200
C94         C  0.89810937  0.41690964  0.44760061    -0.00600
C95         C  0.90655427  0.43398540  0.99412200    -0.23500
C96         C  0.88750074  0.41851469  0.03707731    -0.23700
C97         C  0.86746962  0.39190615  0.01791050    -0.00700
H98         H  0.92454747  0.45619547  0.99522455     0.13100
H99         H  0.88807605  0.42592462  0.07783413     0.13100
N100        N  0.84653778  0.47749452  0.35565959    -0.03200
C101        C  0.87271399  0.48095473  0.35296068    -0.00600
C102        C  0.87875853  0.47390941  0.40323456    -0.23500
C103        C  0.85611714  0.46667886  0.43842159    -0.23700
C104        C  0.83686186  0.46931142  0.40849617    -0.00700
H105        H  0.89809778  0.47484772  0.41355429     0.13100
H106        H  0.85443379  0.46130804  0.48170077     0.13100
C107        C  0.01569686  0.52301807  0.19834232     0.02600
C108        C  0.01643198  0.49803223  0.21263290     0.02600
C109        C  0.99086512  0.47291467  0.23380715    -0.18000
C110        C  0.96587369  0.47289466  0.24558511     0.02600
C111        C  0.96461050  0.49665570  0.22529800     0.02600
C112        C  0.98908730  0.52055704  0.19886307    -0.18000
H113        H  0.98862116  0.53963066  0.18798560     0.04600
H114        H  0.99173948  0.45473558  0.24960055     0.04600
O115        O  0.47391969  0.21137971  0.13391014    -0.71500
O116        O  0.47635641  0.26096610  0.52022500    -0.71700
O117        O  0.47381023  0.26038744  0.13138264    -0.71600
O118        O  0.47609946  0.21098628  0.52299248    -0.71600
O119        O  0.42972956  0.18584764  0.52451748    -0.71500
O120        O  0.42746314  0.23513197  0.13057197    -0.71500
O121        O  0.42998062  0.23543763  0.52097110    -0.71500
O122        O  0.42754859  0.18644856  0.13380440    -0.71700
V123        V  0.47456391  0.23636450  0.07727775     1.35200
V124        V  0.43001131  0.21194067  0.07715274     1.35200
C125        C  0.45009082  0.19049767  0.15404827     0.77800
C126        C  0.45344119  0.25731118  0.50230102     0.77800
C127        C  0.45006999  0.25556719  0.15020778     0.77700
C128        C  0.45311922  0.18951324  0.50643935     0.77700
O129        O  0.70641143  0.47126482  0.20988792    -0.71500
O130        O  0.73758608  0.45385199  0.08807478    -0.71700
O131        O  0.74860319  0.46122567  0.19481324    -0.71600
O132        O  0.69549342  0.46417724  0.10282554    -0.71600
O133        O  0.72505023  0.51085924  0.09251727    -0.71500
O134        O  0.78034887  0.50633949  0.17257768    -0.71500
O135        O  0.76575962  0.49993615  0.06752986    -0.71500
O136        O  0.73957932  0.51698178  0.19715319    -0.71700
V137        V  0.72257244  0.46344495  0.14862489     1.35200
V138        V  0.75208405  0.50763041  0.13261787     1.35200
C139        C  0.71806738  0.49704897  0.22503569     0.77800
C140        C  0.75686881  0.47398258  0.05659856     0.77800
C141        C  0.77375763  0.48327508  0.19901233     0.77700
C142        C  0.70111429  0.48837663  0.08294445     0.77700
O143        O  0.50350056  0.72106679  0.44396220    -0.71500
O144        O  0.51032374  0.77493177  0.04507810    -0.71700
O145        O  0.50901972  0.77393734  0.43940457    -0.71600
O146        O  0.50570218  0.72355372  0.05003242    -0.71600
O147        O  0.55196637  0.74588835  0.04190213    -0.71500
O148        O  0.55514119  0.79517450  0.43218984    -0.71500
O149        O  0.55659662  0.79681670  0.03707456    -0.71500
O150        O  0.54965749  0.74283365  0.43580520    -0.71700
V151        V  0.50752081  0.74868234  0.99227443     1.35200
V152        V  0.55194399  0.76970597  0.98492523     1.35200
C153        C  0.52517345  0.72200934  0.42336166     0.77800
C154        C  0.53475506  0.79464091  0.05989738     0.77800
C155        C  0.53291119  0.79420853  0.41799819     0.77700
C156        C  0.52869763  0.72672259  0.06633444     0.77700
N157        N  0.36303103  0.50914703  0.32708379    -0.03200
C158        C  0.38652139  0.50742234  0.32767700    -0.00600
C159        C  0.40031539  0.51487056  0.27651677    -0.23500
C160        C  0.38488280  0.52147678  0.24326354    -0.23700
C161        C  0.36222454  0.51785407  0.27527933    -0.00700
H162        H  0.41922470  0.51484540  0.26449252     0.13100
H163        H  0.38898032  0.52706027  0.19992291     0.13100
N164        N  0.52080634  0.63899379  0.27605172    -0.03200
C165        C  0.51907380  0.61329031  0.28369045    -0.00600
C166        C  0.52774260  0.60664854  0.23565471    -0.23500
C167        C  0.53433889  0.62814869  0.19739860    -0.23700
C168        C  0.53000658  0.64765770  0.22302311    -0.00700
H169        H  0.52812753  0.58741461  0.22851738     0.13100
H170        H  0.54074151  0.62903477  0.15494992     0.13100
N171        N  0.45453043  0.34044292  0.35081966    -0.03200
C172        C  0.45228108  0.36358851  0.36023928    -0.00600
C173        C  0.43866864  0.36787244  0.31803033    -0.23500
C174        C  0.43258099  0.34716277  0.28108228    -0.23700
C175        C  0.44222860  0.33053740  0.30221640    -0.00700
H176        H  0.43570899  0.38576748  0.31258140     0.13100
H177        H  0.42359285  0.34546915  0.24167689     0.13100
N178        N  0.64643623  0.51944608  0.42499127    -0.03200
C179        C  0.63372090  0.53480874  0.42942363    -0.00600
C180        C  0.64907289  0.56031356  0.39731892    -0.23500
C181        C  0.66917383  0.55872404  0.36675162    -0.23700
C182        C  0.66644574  0.53309910  0.38332104    -0.00700
H183        H  0.64311995  0.57593972  0.39003343     0.13100
H184        H  0.68234810  0.57319049  0.33266959     0.13100
C185        C  0.48888939  0.52000107  0.43955747     0.02600
C186        C  0.46219229  0.49327048  0.44909661     0.02600
C187        C  0.46234982  0.46792777  0.46064345    -0.18000
C188        C  0.48810103  0.46835846  0.46000127     0.02600
C189        C  0.51446897  0.49589351  0.45887122     0.02600
C190        C  0.51416955  0.52127284  0.45069248    -0.18000
H191        H  0.53445223  0.54190494  0.44425522     0.04600
H192        H  0.44209349  0.44720024  0.46298077     0.04600
C193        C  0.58850979  0.51137931  0.48981545    -0.26000
C194        C  0.60208279  0.52045888  0.43736673    -0.14100
C195        C  0.58519291  0.51723213  0.39222028     0.36500
C196        C  0.55671833  0.50829685  0.40095100    -0.25500
C197        C  0.54316611  0.49989100  0.45294326    -0.14700
C198        C  0.55895935  0.50079698  0.49795334     0.37600
N199        N  0.54535941  0.49243143  0.55171011    -0.89000
H200        H  0.60108750  0.51338808  0.52445187     0.18700
H201        H  0.54504622  0.50856923  0.36637649     0.18700
N202        N  0.59606924  0.52277467  0.33657953    -0.88000
H203        H  0.55996727  0.49468151  0.58040857     0.36100
H204        H  0.52936654  0.47031827  0.55195674     0.41200
H205        H  0.60617671  0.51160316  0.32940441     0.40800
H206        H  0.61044975  0.54495985  0.32852737     0.35700
C207        C  0.50007995  0.43992476  0.39884882    -0.26000
C208        C  0.48609099  0.44053908  0.44693453    -0.14100
C209        C  0.46545981  0.41361257  0.47383482     0.36500
C210        C  0.45680831  0.38728798  0.44838597    -0.25500
C211        C  0.46922159  0.38734713  0.39771233    -0.14700
C212        C  0.49263488  0.41394591  0.37522183     0.37600
N213        N  0.50772227  0.41549756  0.32548438    -0.89000
H214        H  0.51468332  0.45958328  0.37537592     0.18700
H215        H  0.43878580  0.36699269  0.46584679     0.18700
N216        N  0.45189935  0.41323750  0.52484209    -0.88000
H217        H  0.49363615  0.40777897  0.29368111     0.36100
H218        H  0.51582062  0.40227228  0.33070931     0.41200
H219        H  0.46776423  0.42237788  0.55348334     0.40800
H220        H  0.43701532  0.39187153  0.53895530     0.35700
C221        C  0.48759671  0.56236044  0.31602480    -0.26000
C222        C  0.50555329  0.59134485  0.33046674    -0.14100
C223        C  0.51475337  0.59680218  0.38456392     0.36500
C224        C  0.50714227  0.57310409  0.42142380    -0.25500
C225        C  0.49183406  0.54432302  0.40436142    -0.14700
C226        C  0.48247119  0.53917018  0.35048248     0.37600
N227        N  0.46981983  0.51070193  0.32929819    -0.89000
H228        H  0.48013055  0.55787888  0.27485945     0.18700
H229        H  0.51469864  0.57715244  0.46252149     0.18700
N230        N  0.53294662  0.62604328  0.40119121    -0.88000
H231        H  0.46418854  0.51053286  0.28888766     0.36100
H232        H  0.48535520  0.50542786  0.32878841     0.41200
H233        H  0.55255822  0.63518885  0.37922938     0.40800
H234        H  0.53726599  0.62622717  0.44245913     0.35700
C235        C  0.41702872  0.46958041  0.39866599    -0.26000
C236        C  0.43471221  0.49072382  0.43523163    -0.14100
C237        C  0.42902407  0.51242410  0.44787263     0.36500
C238        C  0.41042236  0.51596124  0.41561825    -0.25500
C239        C  0.39618941  0.49727723  0.37347809    -0.14700
C240        C  0.39787861  0.47258449  0.36780053     0.37600
N241        N  0.38179731  0.45109733  0.32864785    -0.89000
H242        H  0.42022177  0.45227494  0.38912314     0.18700
H243        H  0.40874913  0.53460751  0.42092678     0.18700
N244        N  0.44314071  0.53229383  0.49046101    -0.88000
H245        H  0.39624685  0.45294388  0.29804859     0.36100
H246        H  0.36707706  0.45454119  0.31006948     0.41200
H247        H  0.45496759  0.52632095  0.51323329     0.40800
H248        H  0.42720057  0.53016112  0.51764086     0.35700
C249        C  0.50623447  0.67146260  0.18613365    -0.26000
C250        C  0.53169525  0.67224101  0.19267619    -0.14100
C251        C  0.55662845  0.69271869  0.16104245     0.36500
C252        C  0.55499151  0.71060127  0.12166005    -0.25500
C253        C  0.52910412  0.70866480  0.11229071    -0.14700
C254        C  0.50461120  0.68945882  0.14628103     0.37600
N255        N  0.47803764  0.68764490  0.13944373    -0.89000
H256        H  0.48710063  0.65555187  0.21006623     0.18700
H257        H  0.57418560  0.72556294  0.09690078     0.18700
N258        N  0.58374407  0.69539749  0.16630572    -0.88000
H259        H  0.48112656  0.70746967  0.15030128     0.36100
H260        H  0.46198029  0.67178118  0.16645287     0.41200
H261        H  0.58287542  0.68165568  0.19757443     0.40800
H262        H  0.59849808  0.71651953  0.17777865     0.35700
C263        C  0.54796155  0.70319765  0.36328362    -0.26000
C264        C  0.52259178  0.69928352  0.38657297    -0.14100
C265        C  0.49610095  0.67340028  0.37552113     0.36500
C266        C  0.49574299  0.65317006  0.34046999    -0.25500
C267        C  0.52120854  0.65789378  0.31652401    -0.14700
C268        C  0.54743439  0.68290142  0.32881644     0.37600
N269        N  0.57377921  0.68762029  0.30633595    -0.89000
H270        H  0.56857895  0.72226519  0.37157288     0.18700
H271        H  0.47549240  0.63392230  0.33111781     0.18700
N272        N  0.46926696  0.66682668  0.39924815    -0.88000
H273        H  0.58632480  0.68905149  0.33868598     0.36100
H274        H  0.58461168  0.70763048  0.28448343     0.41200
H275        H  0.46594858  0.68316625  0.38694035     0.40800
H276        H  0.47011263  0.66613767  0.44175642     0.35700
C277        C  0.68024910  0.51692339  0.55346107    -0.26000
C278        C  0.68288400  0.49319382  0.54506755    -0.14100
C279        C  0.66849125  0.47507295  0.50149242     0.36500
C280        C  0.65366744  0.48224798  0.46551966    -0.25500
C281        C  0.65302868  0.50739796  0.47130544    -0.14700
C282        C  0.66557039  0.52415435  0.51735777     0.37600
N283        N  0.66516604  0.54973301  0.52576543    -0.89000
H284        H  0.69075678  0.53078799  0.58711234     0.18700
H285        H  0.64420717  0.46909683  0.43071615     0.18700
N286        N  0.66539913  0.44628663  0.99962277    -0.88000
H287        H  0.68635183  0.56747111  0.52593400     0.36100
H288        H  0.65541681  0.54743865  0.56425482     0.41200
H289        H  0.65615009  0.43284904  0.03491539     0.40800
H290        H  0.68657952  0.45185253  0.99434983     0.35700
C291        C  0.67619497  0.48666845  0.28360863    -0.26000
C292        C  0.70586225  0.50384724  0.27239358    -0.14100
C293        C  0.72280704  0.52826396  0.30374803     0.36500
C294        C  0.70937476  0.53619177  0.34259493    -0.25500
C295        C  0.67945929  0.52003760  0.35132451    -0.14700
C296        C  0.66266241  0.49450242  0.32191691     0.37600
N297        N  0.63187774  0.47663604  0.32724198    -0.89000
H298        H  0.66303339  0.46775249  0.26003418     0.18700
H299        H  0.72221852  0.55567253  0.36495422     0.18700
N300        N  0.75348331  0.54511471  0.29553390    -0.88000
H301        H  0.62389371  0.47851432  0.29027359     0.36100
H302        H  0.62338761  0.48324317  0.35739459     0.41200
H303        H  0.76083107  0.53172840  0.30651543     0.40800
H304        H  0.76272381  0.56239640  0.32172794     0.35700
C305        C  0.42136867  0.26722961  0.21197777    -0.26000
C306        C  0.44844019  0.27325299  0.19388995    -0.14100
C307        C  0.47317937  0.29621190  0.21739469     0.36500
C308        C  0.47029573  0.31356348  0.25516954    -0.25500
C309        C  0.44337705  0.30840065  0.27059198    -0.14700
C310        C  0.41860285  0.28444723  0.24974063     0.37600
N311        N  0.39033762  0.27688944  0.26639490    -0.89000
H312        H  0.40205750  0.24928856  0.19588878     0.18700
H313        H  0.48928986  0.33197179  0.27106806     0.18700
N314        N  0.50119137  0.30232137  0.20225438    -0.88000
H315        H  0.38802583  0.29409143  0.25594103     0.36100
H316        H  0.38774163  0.27330468  0.30875634     0.41200
H317        H  0.50222339  0.28487936  0.21725202     0.40800
H318        H  0.51702960  0.32064615  0.22144970     0.35700
C319        C  0.47976014  0.30517940  0.44840999    -0.26000
C320        C  0.45382054  0.27864018  0.46233060    -0.14100
C321        C  0.42824655  0.27369274  0.44026535     0.36500
C322        C  0.42918525  0.29538780  0.40686579    -0.25500
C323        C  0.45501582  0.32144429  0.39209393    -0.14700
C324        C  0.48059316  0.32641462  0.41337764     0.37600
N325        N  0.50762278  0.35259321  0.39988111    -0.89000
H326        H  0.49957245  0.30956841  0.46497579     0.18700
H327        H  0.40958635  0.29171509  0.39069531     0.18700
N328        N  0.40135920  0.24659370  0.45105253    -0.88000
H329        H  0.50675866  0.37003315  0.41353304     0.36100
H330        H  0.51086797  0.35485770  0.35742527     0.41200
H331        H  0.40282326  0.23050779  0.43205193     0.40800
H332        H  0.38466525  0.24693899  0.43297111     0.35700
C333        C  0.84003808  0.50437186  0.28098149    -0.26000
C334        C  0.83014249  0.47856676  0.31191273    -0.14100
C335        C  0.80289211  0.45411732  0.30272924     0.36500
C336        C  0.78544009  0.45598636  0.26475263    -0.25500
C337        C  0.79448224  0.48208638  0.23520062    -0.14700
C338        C  0.82247915  0.50654849  0.24294317     0.37600
N339        N  0.83278428  0.53369990  0.21354316    -0.89000
H340        H  0.86104547  0.52313621  0.28821773     0.18700
H341        H  0.76437279  0.43688734  0.25932756     0.18700
N342        N  0.79287126  0.42719195  0.33229403    -0.88000
H343        H  0.83552518  0.53074926  0.17246243     0.36100
H344        H  0.85304994  0.54971231  0.22614598     0.41200
H345        H  0.78841187  0.41143096  0.30404793     0.40800
H346        H  0.77371221  0.42107198  0.35362902     0.35700
C347        C  0.79339334  0.44456361  0.46984517    -0.26000
C348        C  0.81214942  0.46839520  0.43470321    -0.14100
C349        C  0.81052408  0.49317811  0.43370837     0.36500
C350        C  0.79123573  0.49432557  0.46990623    -0.25500
C351        C  0.77400044  0.47138569  0.50819812    -0.14700
C352        C  0.77429873  0.44577168  0.50650013     0.37600
N353        N  0.75675981  0.42169138  0.54425242    -0.89000
H354        H  0.79478477  0.42555272  0.47112840     0.18700
H355        H  0.78447771  0.50878138  0.96718853     0.18700
N356        N  0.83006872  0.51818330  0.39947670    -0.88000
H357        H  0.77019688  0.41796516  0.56720674     0.36100
H358        H  0.74402856  0.40334214  0.52180104     0.41200
H359        H  0.84193047  0.53568248  0.42438036     0.40800
H360        H  0.80805437  0.51488855  0.86869781     0.35700
C361        C  0.92231280  0.51438229  0.31952665    -0.26000
C362        C  0.89427100  0.49285131  0.30687271    -0.14100
C363        C  0.88971086  0.47821949  0.25800650     0.36500
C364        C  0.91365497  0.48302521  0.22641344    -0.25500
C365        C  0.94143468  0.50053888  0.24521540    -0.14700
C366        C  0.94600386  0.51792631  0.29004147     0.37600
N367        N  0.97442589  0.53687122  0.30878041    -0.89000
H368        H  0.92572160  0.52607718  0.35653444     0.18700
H369        H  0.91050682  0.47072920  0.19040592     0.18700
N370        N  0.86113023  0.45688423  0.24314650    -0.88000
H371        H  0.97378863  0.54628031  0.34493135     0.36100
H372        H  0.98570135  0.55398927  0.27962880     0.41200
H373        H  0.85229040  0.43977509  0.27263345     0.40800
H374        H  0.86156512  0.44817670  0.20593190     0.35700
C375        C  0.96058286  0.45966755  0.34400828    -0.26000
C376        C  0.94735738  0.45441196  0.29411155    -0.14100
C377        C  0.91782666  0.43275088  0.29311830     0.36500
C378        C  0.90153969  0.41995536  0.34284118    -0.25500
C379        C  0.91477301  0.42672307  0.39345375    -0.14700
C380        C  0.94503734  0.44534636  0.39262235     0.37600
N381        N  0.96042135  0.44964503  0.44121057    -0.89000
H382        H  0.98347278  0.47524246  0.34541452     0.18700
H383        H  0.87860331  0.40531091  0.34131654     0.18700
N384        N  0.90457918  0.42284054  0.24213926    -0.88000
H385        H  0.97235089  0.47186614  0.44810159     0.36100
H386        H  0.97480317  0.44313603  0.43428776     0.41200
H387        H  0.88623429  0.42371919  0.24234296     0.40800
H388        H  0.89763781  0.40094245  0.24030636     0.35700
C389        C  0.07555882  0.60246770  0.16554524    -0.26000
C390        C  0.08158957  0.61253533  0.21870717    -0.14100
C391        C  0.06802027  0.59249762  0.26369277     0.36500
C392        C  0.04687769  0.56367017  0.25477441    -0.25500
C393        C  0.04093990  0.55314907  0.20208287    -0.14700
C394        C  0.05525913  0.57290458  0.15662592     0.37600
N395        N  0.04905083  0.56404775  0.10140856    -0.89000
H396        H  0.08574651  0.61779854  0.13091063     0.18700
H397        H  0.03497244  0.54892847  0.28956390     0.18700
N398        N  0.07511560  0.60182900  0.31857052    -0.88000
H399        H  0.03990095  0.57466312  0.08404985     0.36100
H400        H  0.03389864  0.54179394  0.10017452     0.41200
H401        H  0.09648551  0.60851853  0.32298273     0.40800
H402        H  0.06290468  0.58449221  0.34701007     0.35700
C403        C  0.06398492  0.46768039  0.20688309    -0.26000
C404        C  0.08470476  0.48492043  0.24393862    -0.14100
C405        C  0.08664040  0.51030946  0.26089509     0.36500
C406        C  0.06584174  0.51593377  0.24639103    -0.25500
C407        C  0.04322553  0.49734331  0.21341352    -0.14700
C408        C  0.04352436  0.47391363  0.19070558     0.37600
N409        N  0.02155030  0.45514538  0.15480463    -0.89000
H410        H  0.06224506  0.44798151  0.19420932     0.18700
H411        H  0.06619671  0.53320013  0.26656708     0.18700
N412        N  0.10785916  0.52924998  0.29763858    -0.88000
H413        H  0.02440253  0.43867373  0.14245495     0.36100
H414        H  0.02395511  0.46755858  0.11960868     0.41200
H415        H  0.12808181  0.53647300  0.27980558     0.40800
H416        H  0.10523751  0.51761110  0.33409181     0.35700
C417        C  0.16936387  0.72018853  0.32303730    -0.26000
C418        C  0.15892841  0.69187803  0.30705953    -0.14100
C419        C  0.17200687  0.67742223  0.32583956     0.36500
C420        C  0.19506110  0.69132431  0.36031638    -0.25500
C421        C  0.20494875  0.71929851  0.37812290    -0.14700
C422        C  0.19214165  0.73400002  0.35826443     0.37600
N423        N  0.19740591  0.76272418  0.87963772    -0.89000
H424        H  0.15922541  0.73137190  0.30931675     0.18700
H425        H  0.20428535  0.67946543  0.37529369     0.18700
N426        N  0.16063157  0.64782286  0.31342127    -0.88000
H427        H  0.17931855  0.76097659  0.89823721     0.36100
H428        H  0.20375584  0.77686999  0.84525332     0.41200
H429        H  0.15404295  0.63539393  0.35016502     0.40800
H430        H  0.17723523  0.64661342  0.29541160     0.35700
C431        C  0.18680843  0.67700553  0.13122165    -0.26000
C432        C  0.19253563  0.70361292  0.10818904    -0.14100
C433        C  0.17409670  0.71294397  0.12320247     0.36500
C434        C  0.15190397  0.69684117  0.16267477    -0.25500
C435        C  0.14727889  0.67131093  0.18814654    -0.14700
C436        C  0.16413135  0.66053436  0.17041334     0.37600
N437        N  0.15905098  0.63334764  0.19144704    -0.89000
H438        H  0.20021769  0.66903627  0.11923286     0.18700
H439        H  0.13860562  0.70486777  0.17519008     0.18700
N440        N  0.17779366  0.73888578  0.09887320    -0.88000
H441        H  0.15432713  0.61992327  0.15850144     0.36100
H442        H  0.14085214  0.62278935  0.21782467     0.41200
H443        H  0.18098511  0.75292991  0.12999792     0.40800
H444        H  0.15882738  0.73335848  0.08032025     0.35700
C445        C  0.30573588  0.48170325  0.43944955    -0.26000
C446        C  0.30683934  0.50731949  0.45178349    -0.14100
C447        C  0.32836979  0.53384785  0.42485809     0.36500
C448        C  0.34744852  0.53384795  0.38595080    -0.25500
C449        C  0.34566968  0.50818969  0.37282844    -0.14700
C450        C  0.32482332  0.48189553  0.40049619     0.37600
N451        N  0.32198040  0.45498293  0.38886606    -0.89000
H452        H  0.29105863  0.45909209  0.95961823     0.18700
H453        H  0.36339927  0.55392313  0.36417149     0.18700
N454        N  0.33069342  0.56067860  0.43613291    -0.88000
H455        H  0.34223467  0.45429491  0.89797336     0.36100
H456        H  0.31948995  0.45188180  0.34702922     0.41200
H457        H  0.31303159  0.55981307  0.41978879     0.40800
H458        H  0.34881348  0.57820775  0.41566079     0.35700
C459        C  0.32072630  0.53870141  0.18712816    -0.26000
C460        C  0.29594830  0.51119665  0.18010331    -0.14100
C461        C  0.29099629  0.48742105  0.21370252     0.36500
C462        C  0.31193428  0.49097441  0.24928908    -0.25500
C463        C  0.33788216  0.51776229  0.25194480    -0.14700
C464        C  0.34180703  0.54223979  0.22234796     0.37600
N465        N  0.36704512  0.57079841  0.22626145    -0.89000
H466        H  0.32456756  0.55742495  0.16301273     0.18700
H467        H  0.30874471  0.47211146  0.27177120     0.18700
N468        N  0.26526868  0.45933429  0.21051726    -0.88000
H469        H  0.37842742  0.57672370  0.18855982     0.36100
H470        H  0.38050340  0.57110845  0.25560846     0.41200
H471        H  0.25507732  0.45286957  0.24939995     0.40800
H472        H  0.27098155  0.44469223  0.19961868     0.35700
C473        C  0.17011897  0.51358198  0.22923442    -0.26000
C474        C  0.14364541  0.48706572  0.23415297    -0.14100
C475        C  0.13767155  0.46521297  0.19754568     0.36500
C476        C  0.15871554  0.46982870  0.15810157    -0.25500
C477        C  0.18574044  0.49591392  0.15420078    -0.14700
C478        C  0.19112441  0.51850343  0.18896367     0.37600
N479        N  0.21825598  0.54578131  0.18517419    -0.89000
H480        H  0.17456791  0.53015229  0.25780665     0.18700
H481        H  0.15422625  0.45259487  0.13114688     0.18700
N482        N  0.11055420  0.43792030  0.20209269    -0.88000
H483        H  0.21928290  0.55923223  0.21580434     0.36100
H484        H  0.21933437  0.55628616  0.14815568     0.41200
H485        H  0.10932723  0.42773789  0.23962929     0.40800
H486        H  0.10937478  0.42418884  0.17194371     0.35700
C487        C  0.18344305  0.46602474  0.40381209    -0.26000
C488        C  0.19719061  0.49241531  0.43060597    -0.14100
C489        C  0.19065320  0.51334863  0.41646480     0.36500
C490        C  0.16955278  0.50687647  0.37877036    -0.25500
C491        C  0.15447356  0.47972169  0.35541558    -0.14700
C492        C  0.16202197  0.45941283  0.36705759     0.52000
N493        N  0.14758403  0.43156390  0.34343897    -0.89000
H494        H  0.18720495  0.44616583  0.91172604     0.18700
H495        H  0.16348106  0.52237995  0.37072106     0.18700
N496        N  0.20398336  0.54046978  0.44266447    -0.88000
H497        H  0.12578277  0.42058690  0.35489239     0.36100
H498        H  0.14984127  0.43485523  0.30095850     0.41200
H499        H  0.18793142  0.54186175  0.46278870     0.40800
H500        H  0.21395170  0.55718161  0.41240349     0.35700
C501        C  0.58773518  0.08642338  0.48145291    -0.26000
C502        C  0.59109565  0.11125065  0.45533871    -0.14100
C503        C  0.57879841  0.10887741  0.40480809     0.36500
C504        C  0.56149524  0.08122887  0.38341907    -0.25500
C505        C  0.55495728  0.05591401  0.41327791    -0.14700
C506        C  0.56955104  0.05872421  0.46133911     0.37600
N507        N  0.56469463  0.03336864  0.49110335    -0.89000
H508        H  0.59723207  0.08840026  0.52049081     0.18700
H509        H  0.55201111  0.07941182  0.34469416     0.18700
N510        N  0.58288717  0.13428413  0.37669895    -0.88000
H511        H  0.57731150  0.03925457  0.52524518     0.36100
H512        H  0.54335235  0.02145372  0.50588509     0.41200
H513        H  0.57295498  0.14223704  0.40072000     0.40800
H514        H  0.57251865  0.12881680  0.33982590     0.35700
C515        C  0.42889138  0.12348872  0.42024412    -0.26000
C516        C  0.45499510  0.12796477  0.40013002    -0.14100
C517        C  0.48083908  0.15276376  0.41553598     0.36500
C518        C  0.47976690  0.17264248  0.44965285    -0.25500
C519        C  0.45345151  0.16857007  0.46845055    -0.14700
C520        C  0.42769006  0.14359281  0.45267296     0.37600
N521        N  0.40022897  0.13867971  0.46878509    -0.89000
H522        H  0.40909815  0.10452753  0.40813395     0.18700
H523        H  0.49975485  0.19150343  0.46131838     0.18700
N524        N  0.50832566  0.15863778  0.39684686    -0.88000
H525        H  0.38357785  0.11867586  0.45590124     0.36100
H526        H  0.39841058  0.15450786  0.44808072     0.41200
H527        H  0.50609180  0.14222837  0.37242143     0.40800
H528        H  0.51896438  0.15835020  0.43119366     0.35700
C529        C  0.46860775  0.15342167  0.26502578    -0.26000
C530        C  0.44127846  0.12931661  0.28040648    -0.14100
C531        C  0.41707518  0.12726933  0.25859821     0.36500
C532        C  0.42057809  0.14771014  0.21844675    -0.25500
C533        C  0.44796888  0.17088162  0.19990684    -0.14700
C534        C  0.47225396  0.17444687  0.22542459     0.37600
N535        N  0.50048681  0.19899320  0.21070650    -0.89000
H536        H  0.48724370  0.15531487  0.28255429     0.18700
H537        H  0.40155078  0.14507119  0.20126140     0.18700
N538        N  0.38879391  0.10453967  0.27749080    -0.88000
H539        H  0.51591191  0.19784652  0.23219827     0.36100
H540        H  0.50133855  0.21754312  0.22336877     0.41200
H541        H  0.37825815  0.11411790  0.29325436     0.40800
H542        H  0.37777594  0.09277732  0.24393808     0.35700
C543        C  0.48323808  0.07177522  0.34090709    -0.26000
C544        C  0.46917750  0.07453095  0.38660375    -0.14100
C545        C  0.47007910  0.06259222  0.43781031     0.36500
C546        C  0.48337630  0.04671676  0.44104902    -0.25500
C547        C  0.49492782  0.04169332  0.39406332    -0.14700
C548        C  0.49470410  0.05444637  0.34324017     0.37600
N549        N  0.50439367  0.04904644  0.29253953    -0.89000
H550        H  0.48222566  0.08034831  0.30128616     0.18700
H551        H  0.48302436  0.03664801  0.47990809     0.18700
N552        N  0.45638656  0.06471021  0.48642219    -0.88000
H553        H  0.48656849  0.03748019  0.26869698     0.36100
H554        H  0.51272058  0.03607677  0.29808155     0.41200
H555        H  0.44765472  0.07717808  0.47872235     0.40800
H556        H  0.47229514  0.07597958  0.51434767     0.35700
C557        C  0.34248840  0.81566814  0.18964865    -0.26000
C558        C  0.36558901  0.81200246  0.18302339    -0.14100
C559        C  0.36348717  0.79165350  0.14567986     0.36500
C560        C  0.33934296  0.77683655  0.11421048    -0.25500
C561        C  0.31727770  0.78217813  0.11799607    -0.14700
C562        C  0.31839025  0.80088054  0.15776873     0.37600
N563        N  0.29520471  0.80508457  0.16572435    -0.89000
H564        H  0.34368382  0.83123679  0.21762993     0.18700
H565        H  0.33862429  0.76217603  0.08441496     0.18700
N566        N  0.38547134  0.78559722  0.13838591    -0.88000
H567        H  0.30331180  0.82722258  0.15955778     0.36100
H568        H  0.28748457  0.79910124  0.20634563     0.41200
H569        H  0.38958566  0.77986138  0.17642252     0.40800
H570        H  0.40413361  0.80402562  0.12207055     0.35700
C571        C  0.35897972  0.83966106  0.32698350    -0.26000
C572        C  0.37253902  0.82635394  0.30569732    -0.14100
C573        C  0.36475234  0.79880670  0.32732366     0.36500
C574        C  0.34304489  0.78471091  0.36839612    -0.25500
C575        C  0.32837698  0.79729702  0.38856211    -0.14700
C576        C  0.33694181  0.82550384  0.36808932     0.37600
N577        N  0.32389563  0.84264007  0.89408414    -0.89000
H578        H  0.36529206  0.86095269  0.31055132     0.18700
H579        H  0.33731443  0.76344563  0.38391647     0.18700
N580        N  0.37867898  0.78469108  0.30840243    -0.88000
H581        H  0.33282324  0.86308723  0.87446161     0.36100
H582        H  0.32982074  0.84639561  0.93463836     0.41200
H583        H  0.40072161  0.79862241  0.31215481     0.40800
H584        H  0.37470318  0.78065554  0.26713775     0.35700
C585        C  0.45955635  0.91469744  0.38033579    -0.26000
C586        C  0.46239280  0.94028487  0.35895148    -0.14100
C587        C  0.44568218  0.93837972  0.31485834     0.36500
C588        C  0.42908257  0.91196480  0.28965628    -0.25500
C589        C  0.42925086  0.88741054  0.30654581    -0.14700
C590        C  0.44354708  0.88833726  0.35407613     0.37600
N591        N  0.44352006  0.86359143  0.37508885    -0.89000
H592        H  0.47176358  0.91575436  0.41498798     0.18700
H593        H  0.41821361  0.91140230  0.25313588     0.18700
N594        N  0.44793495  0.96385093  0.29161952    -0.88000
H595        H  0.46441143  0.86831179  0.37025424     0.36100
H596        H  0.43048765  0.84528543  0.35285769     0.41200
H597        H  0.42740014  0.96025381  0.29212731     0.40800
H598        H  0.45538262  0.96671466  0.25089622     0.35700
C599        C  0.56334656  0.86491782  0.33214619    -0.26000
C600        C  0.53926135  0.86051385  0.30607407    -0.14100
C601        C  0.51248782  0.83440780  0.31775925     0.36500
C602        C  0.51080535  0.81307989  0.35421555    -0.25500
C603        C  0.53531708  0.81706699  0.37897400    -0.14700
C604        C  0.56190366  0.84374170  0.36793904     0.37600
N605        N  0.58752869  0.84957016  0.39310028    -0.89000
H606        H  0.58383661  0.88486161  0.32254835     0.18700
H607        H  0.49020472  0.79310324  0.36268734     0.18700
N608        N  0.48683589  0.82875409  0.29310535    -0.88000
H609        H  0.60430485  0.87113922  0.38495408     0.36100
H610        H  0.59393919  0.83686194  0.37443192     0.41200
H611        H  0.49097056  0.84642942  0.26797361     0.40800
H612        H  0.47259435  0.82659179  0.32446238     0.35700
C613        C  0.56354466  0.82827545  0.13190509    -0.26000
C614        C  0.53805989  0.81441700  0.10355935    -0.14100
C615        C  0.51665529  0.82007659  0.11709293     0.36500
C616        C  0.52158519  0.84018385  0.15684018    -0.25500
C617        C  0.54761233  0.85492174  0.18306544    -0.14700
C618        C  0.56855185  0.84848381  0.17102552     0.37600
N619        N  0.59530521  0.86254219  0.19729740    -0.89000
H620        H  0.58001456  0.82381593  0.12290615     0.18700
H621        H  0.50569274  0.84555954  0.16488009     0.18700
N622        N  0.49052569  0.80663408  0.08877930    -0.88000
H623        H  0.59100697  0.85851374  0.23940207     0.36100
H624        H  0.60605028  0.88491813  0.18891680     0.41200
H625        H  0.48897180  0.82300562  0.06977243     0.40800
H626        H  0.47343582  0.79540331  0.11768040     0.35700
C627        C  0.52299820  0.92839017  0.27510197    -0.26000
C628        C  0.53971494  0.92080726  0.30396198    -0.14100
C629        C  0.54781764  0.93112053  0.35687110     0.36500
C630        C  0.53889801  0.94853196  0.37968411    -0.25500
C631        C  0.52330604  0.95720561  0.34943217    -0.14700
C632        C  0.51619657  0.94770097  0.29580305     0.37600
N633        N  0.50347620  0.95897136  0.26138884    -0.89000
H634        H  0.51765660  0.92143892  0.23370820     0.18700
H635        H  0.54497181  0.95613741  0.42047211     0.18700
N636        N  0.56593645  0.92522238  0.38729262    -0.88000
H637        H  0.49963575  0.94990484  0.22307256     0.36100
H638        H  0.51826609  0.98127425  0.25491922     0.41200
H639        H  0.58500169  0.93292993  0.36413778     0.40800
H640        H  0.55557273  0.90274617  0.39329093     0.35700
C641        C  0.82254689  0.32443118  0.11021113    -0.26000
C642        C  0.80309052  0.33008298  0.13572838    -0.14100
C643        C  0.80292954  0.35474263  0.11704508     0.36500
C644        C  0.82345437  0.37399307  0.07667529    -0.25500
C645        C  0.84337161  0.36869377  0.05292849    -0.14700
C646        C  0.84266125  0.34346586  0.06914781     0.37600
N647        N  0.86310468  0.33785755  0.04543106    -0.89000
H648        H  0.82264982  0.30544776  0.12331319     0.18700
H649        H  0.82422584  0.39353447  0.06405671     0.18700
N650        N  0.78232117  0.36050006  0.13933948    -0.88000
H651        H  0.85955200  0.31822478  0.06141459     0.36100
H652        H  0.88344886  0.35418293  0.05687126     0.41200
H653        H  0.76216871  0.34415038  0.12708046     0.40800
H654        H  0.78593763  0.38002295  0.12254010     0.35700
C655        C  0.80583063  0.34784299  0.38829298    -0.26000
C656        C  0.80935251  0.32700984  0.36343353    -0.14100
C657        C  0.83540898  0.32827160  0.37038621     0.36500
C658        C  0.85662661  0.34971279  0.40224073    -0.25500
C659        C  0.85262123  0.37013318  0.42695414    -0.14700
C660        C  0.82722801  0.36943075  0.41923390     0.37600
N661        N  0.82357664  0.39111265  0.44252016    -0.89000
H662        H  0.78641228  0.34767642  0.38298516     0.18700
H663        H  0.87627970  0.35040259  0.40805644     0.18700
N664        N  0.84127018  0.30857023  0.34518217    -0.88000
H665        H  0.80374790  0.38774411  0.43319200     0.36100
H666        H  0.83917741  0.41099386  0.42348517     0.41200
H667        H  0.84044427  0.31055201  0.30287705     0.40800
H668        H  0.82567214  0.28740776  0.35916397     0.35700
C669        C  0.66993330  0.17297682  0.43505109    -0.26000
C670        C  0.64746347  0.17643632  0.45061794    -0.14100
C671        C  0.64655587  0.19946550  0.42646946     0.36500
C672        C  0.66826189  0.21912617  0.38857314    -0.25500
C673        C  0.69138585  0.21646684  0.37350271    -0.14700
C674        C  0.69183828  0.19270801  0.39667140     0.37600
N675        N  0.71460837  0.18868777  0.38216036    -0.89000
H676        H  0.67080124  0.15531466  0.45354822     0.18700
H677        H  0.66694297  0.23671296  0.37107877     0.18700
N678        N  0.62360704  0.20315931  0.44140410    -0.88000
H679        H  0.70557851  0.16814010  0.36621277     0.36100
H680        H  0.72467165  0.18896260  0.41781865     0.41200
H681        H  0.61321745  0.20252595  0.40600129     0.40800
H682        H  0.63245407  0.22371680  0.45719829     0.35700
C683        C  0.65799640  0.22114055  0.08039090    -0.26000
C684        C  0.65381776  0.19438731  0.06777525    -0.14100
C685        C  0.67160271  0.18585635  0.08929246     0.36500
C686        C  0.69228748  0.20365944  0.12599597    -0.25500
C687        C  0.69530896  0.22965598  0.14175513    -0.14700
C688        C  0.67902534  0.23926352  0.11629058     0.37600
N689        N  0.68354776  0.26708942  0.12737944    -0.89000
H690        H  0.64423144  0.22748462  0.06327054     0.18700
H691        H  0.70514335  0.19647764  0.14425561     0.18700
N692        N  0.66756404  0.15846328  0.07605598    -0.88000
H693        H  0.66947069  0.27048378  0.10593366     0.36100
H694        H  0.70421215  0.28296511  0.11227864     0.41200
H695        H  0.64742122  0.14199606  0.09236561     0.40800
H696        H  0.68261736  0.15558582  0.09486804     0.35700
O697        O  0.78472217  0.28937110  0.69654006    -0.71500
O698        O  0.73325864  0.23605091  0.81028021    -0.71700
O699        O  0.73247680  0.24072369  0.70074102    -0.71600
O700        O  0.78662036  0.28575646  0.80621233    -0.71600
O701        O  0.76725260  0.31092438  0.81424981    -0.71500
O702        O  0.71357978  0.26634121  0.70922107    -0.71500
O703        O  0.71433045  0.26168709  0.81790729    -0.71500
O704        O  0.76576495  0.31490428  0.70530945    -0.71700
V705        V  0.75893784  0.26344712  0.75388520     1.35200
V706        V  0.74063995  0.28795019  0.76181859     1.35200
C707        C  0.78360010  0.31092949  0.68057963     0.77800
C708        C  0.71419304  0.23920950  0.83221895     0.77800
C709        C  0.71411352  0.24625631  0.68616186     0.77700
C710        C  0.78676311  0.30676358  0.82708641     0.77700
N711        N  0.54474987  0.88289605  0.76112626    -0.03200
C712        C  0.55537695  0.91145539  0.76934792    -0.00600
C713        C  0.57365178  0.92871258  0.72588337    -0.23500
C714        C  0.57424339  0.91059200  0.68935386    -0.23700
C715        C  0.55659768  0.88289057  0.71192872    -0.00700
H716        H  0.58317826  0.95182439  0.71901462     0.13100
H717        H  0.58532636  0.91678166  0.64959013     0.13100
N718        N  0.39258415  0.84165128  0.76359835    -0.03200
C719        C  0.41924826  0.86549102  0.76816186    -0.00600
C720        C  0.43539828  0.87132738  0.72017621    -0.23500
C721        C  0.41796801  0.85079976  0.68450458    -0.23700
C722        C  0.39173542  0.83270155  0.71203580    -0.00700
H723        H  0.45657776  0.89026127  0.71034740     0.13100
H724        H  0.42308762  0.85123035  0.64150626     0.13100
N725        N  0.45524956  0.10995404  0.86122840    -0.03200
C726        C  0.44919017  0.08296625  0.87609450    -0.00600
C727        C  0.42841268  0.06245267  0.84360414    -0.23500
C728        C  0.42291796  0.07707564  0.80520362    -0.23700
C729        C  0.43974119  0.10602006  0.81650721    -0.00700
H730        H  0.42149960  0.03981952  0.84235664     0.13100
H731        H  0.40955065  0.06776053  0.77073449     0.13100
N732        N  0.62698067  0.16037004  0.99384573    -0.03200
C733        C  0.59907719  0.13832427  0.99046146    -0.00600
C734        C  0.58232992  0.13393033  0.53301743    -0.23500
C735        C  0.59920111  0.15553993  0.56716610    -0.23700
C736        C  0.62647403  0.17029109  0.54314559    -0.00700
H737        H  0.56009787  0.11677391  0.54125096     0.13100
H738        H  0.59270230  0.15904640  0.60669488     0.13100
C739        C  0.51606959  0.97906174  0.86782269     0.02600
C740        C  0.48708098  0.97135581  0.87097045     0.02600
C741        C  0.48138300  0.99267518  0.88406724    -0.18000
C742        C  0.50355516  0.02129493  0.89287109     0.02600
C743        C  0.53202596  0.02825632  0.89461802     0.02600
C744        C  0.53799016  0.00702536  0.88231619    -0.18000
H745        H  0.55995569  0.01262893  0.88231168     0.04600
H746        H  0.45948791  0.98730390  0.88544894     0.04600
O747        O  0.20649450  0.47561188  0.60650158    -0.71500
O748        O  0.26581709  0.48142650  0.51434899    -0.71700
O749        O  0.25751579  0.48237988  0.62274106    -0.71600
O750        O  0.21487666  0.47458450  0.49838829    -0.71600
O751        O  0.23293415  0.52097163  0.49512560    -0.71500
O752        O  0.28022378  0.52923532  0.61233958    -0.71500
O753        O  0.28455765  0.52772214  0.50303306    -0.71500
O754        O  0.22866496  0.52255507  0.60466160    -0.71700
V755        V  0.23656781  0.47939890  0.56045269     1.35200
V756        V  0.25622802  0.52427218  0.55389559     1.35200
C757        C  0.20766812  0.49808114  0.62225120     0.77800
C758        C  0.28497879  0.50552092  0.49157202     0.77800
C759        C  0.27671656  0.50711950  0.63806710     0.77700
C760        C  0.21603335  0.49631952  0.47619685     0.77700
O761        O  0.23364519  0.75486605  0.44254929    -0.71500
O762        O  0.28415145  0.78249505  0.55923202    -0.71700
O763        O  0.29056631  0.79078069  0.45013274    -0.71600
O764        O  0.22733762  0.74655775  0.55133205    -0.71600
O765        O  0.23242675  0.71008954  0.54693322    -0.71500
O766        O  0.29526070  0.75415252  0.44330872    -0.71500
O767        O  0.28984740  0.74642197  0.55251155    -0.71500
O768        O  0.23796639  0.71791670  0.43746185    -0.71700
V769        V  0.25903225  0.76794053  0.50071759     1.35200
V770        V  0.26378984  0.73282410  0.49515785     1.35200
C771        C  0.22669668  0.73141628  0.42060168     0.77800
C772        C  0.29597826  0.76947303  0.57529867     0.77800
C773        C  0.30380049  0.78012903  0.42918139     0.77700
C774        C  0.21887534  0.72078291  0.56649237     0.77700
N775        N  0.12201420  0.47753114  0.78488620    -0.03200
C776        C  0.09448856  0.47027263  0.78401146    -0.00600
C777        C  0.07962723  0.45488945  0.83180743    -0.23500
C778        C  0.09858200  0.45252961  0.86290326    -0.23700
C779        C  0.12432782  0.46645652  0.83295905    -0.00700
H780        H  0.05811513  0.44852169  0.84477296     0.13100
H781        H  0.09466861  0.44371101  0.90447743     0.13100
N782        N  0.12801188  0.65968663  0.73334883    -0.03200
C783        C  0.09935928  0.64486904  0.72496432    -0.00600
C784        C  0.08657741  0.65611677  0.75612610    -0.23500
C785        C  0.10687890  0.67585198  0.78917112    -0.23700
C786        C  0.13165996  0.67681934  0.77586055    -0.00700
H787        H  0.06379450  0.64707389  0.76155050     0.13100
H788        H  0.10334596  0.68644514  0.82229616     0.13100
N789        N  0.87339242  0.39029631  0.96445644    -0.03200
C790        C  0.89796356  0.41623380  0.94978157    -0.00600
C791        C  0.90692029  0.43441578  0.49227771    -0.23500
C792        C  0.88816214  0.41875948  0.53542999    -0.23700
C793        C  0.86794218  0.39221613  0.51624327    -0.00700
H794        H  0.92478152  0.45668300  0.49345664     0.13100
H795        H  0.88890314  0.42613579  0.57627234     0.13100
N796        N  0.84317955  0.47324858  0.85709674    -0.03200
C797        C  0.87029854  0.47887857  0.85761355    -0.00600
C798        C  0.87627084  0.47426387  0.90999812    -0.23500
C799        C  0.85263131  0.46615160  0.94287586    -0.23700
C800        C  0.83277337  0.46595825  0.90987300    -0.00700
H801        H  0.89606937  0.47707034  0.92316849     0.13100
H802        H  0.85067134  0.46224369  0.98672945     0.13100
C803        C  0.01530091  0.52291899  0.70319722     0.02600
C804        C  0.01640623  0.49807239  0.71603482     0.02600
C805        C  0.99108293  0.47244542  0.73619161    -0.18000
C806        C  0.96585238  0.47179945  0.74875146     0.02600
C807        C  0.96406546  0.49548783  0.73005446     0.02600
C808        C  0.98848122  0.52006304  0.70475271    -0.18000
H809        H  0.98768542  0.53904891  0.69501729     0.04600
H810        H  0.99235828  0.45432812  0.75085846     0.04600
O811        O  0.47353355  0.21009919  0.63326898    -0.71500
O812        O  0.47677277  0.26264685  0.02120525    -0.71700
O813        O  0.47400554  0.25930359  0.63017275    -0.71600
O814        O  0.47708923  0.21283590  0.02360460    -0.71600
O815        O  0.43074481  0.18738358  0.02451124    -0.71500
O816        O  0.42763040  0.23432799  0.63037773    -0.71500
O817        O  0.43044596  0.23671435  0.02106833    -0.71500
O818        O  0.42713409  0.18541119  0.63390363    -0.71700
V819        V  0.47415089  0.23486457  0.57642625     1.35200
V820        V  0.42956500  0.21075117  0.57709737     1.35200
C821        C  0.44971872  0.18953163  0.65401615     0.77800
C822        C  0.45385322  0.25882501  0.00282716     0.77800
C823        C  0.45045802  0.25478539  0.64935865     0.77700
C824        C  0.45426116  0.19116846  0.00697934     0.77700
O825        O  0.70621402  0.46972753  0.70583644    -0.71500
O826        O  0.73920314  0.45551785  0.58264713    -0.71700
O827        O  0.74856684  0.45995745  0.69003321    -0.71600
O828        O  0.69689629  0.46539006  0.59790300    -0.71600
O829        O  0.72675177  0.51210791  0.59015151    -0.71500
O830        O  0.78027660  0.50567859  0.67329764    -0.71500
O831        O  0.76823380  0.50196249  0.56716683    -0.71500
O832        O  0.73902085  0.51573797  0.69610372    -0.71700
V833        V  0.72326641  0.46349539  0.64386183     1.35200
V834        V  0.75293758  0.50796333  0.63176766     1.35200
C835        C  0.71749936  0.49513328  0.72275301     0.77800
C836        C  0.75945718  0.47637165  0.55395389     0.77800
C837        C  0.77343892  0.48187583  0.69711070     0.77700
C838        C  0.70289736  0.48989542  0.57905501     0.77700
O839        O  0.50286879  0.72094976  0.94061299    -0.71500
O840        O  0.51159377  0.77496241  0.54885135    -0.71700
O841        O  0.50793470  0.77380983  0.93543447    -0.71600
O842        O  0.50662483  0.72333431  0.55331794    -0.71600
O843        O  0.55278879  0.74507892  0.54425583    -0.71500
O844        O  0.55404869  0.79502278  0.92827530    -0.71500
O845        O  0.55780499  0.79637888  0.54085840    -0.71500
O846        O  0.54906074  0.74288419  0.93347936    -0.71700
V847        V  0.50851098  0.74869696  0.49594582     1.35200
V848        V  0.55289154  0.76943443  0.48813457     1.35200
C849        C  0.52471209  0.72185290  0.92097731     0.77800
C850        C  0.53609316  0.79458699  0.56343593     0.77800
C851        C  0.53184638  0.79414459  0.91418176     0.77700
C852        C  0.52949973  0.72583896  0.56856831     0.77700
N853        N  0.36390951  0.50682459  0.82573755    -0.03200
C854        C  0.38758333  0.50539690  0.82646093    -0.00600
C855        C  0.40141879  0.51305107  0.77532025    -0.23500
C856        C  0.38577345  0.51935864  0.74200593    -0.23700
C857        C  0.36300989  0.51554059  0.77396393    -0.00700
H858        H  0.42049246  0.51332907  0.76331091     0.13100
H859        H  0.38986977  0.52492607  0.69866310     0.13100
N860        N  0.52218415  0.63813816  0.77791403    -0.03200
C861        C  0.52020041  0.61237771  0.78627278    -0.00600
C862        C  0.52844200  0.60513988  0.73847272    -0.23500
C863        C  0.53509183  0.62641243  0.69962616    -0.23700
C864        C  0.53121871  0.64636949  0.72469883    -0.00700
H865        H  0.52838620  0.58562008  0.73186742     0.13100
H866        H  0.54109986  0.62678918  0.65711473     0.13100
N867        N  0.45498850  0.34091240  0.84791588    -0.03200
C868        C  0.45285593  0.36424793  0.85588474    -0.00600
C869        C  0.43954081  0.36823624  0.81269892    -0.23500
C870        C  0.43366668  0.34721696  0.77657003    -0.23700
C871        C  0.44306551  0.33067700  0.79920318    -0.00700
H872        H  0.43665246  0.38611396  0.80606864     0.13100
H873        H  0.42495098  0.34520040  0.73676458     0.13100
N874        N  0.64717732  0.51787835  0.92421213    -0.03200
C875        C  0.63529791  0.53406676  0.92699248    -0.00600
C876        C  0.65181886  0.55962993  0.89552246    -0.23500
C877        C  0.67213439  0.55746583  0.86712906    -0.23700
C878        C  0.66809657  0.53128635  0.88405579    -0.00700
H879        H  0.64700054  0.57608496  0.88790637     0.13100
H880        H  0.68631207  0.57193779  0.83395034     0.13100
C881        C  0.48995470  0.51963724  0.94264543     0.02600
C882        C  0.46342705  0.49258165  0.95116486     0.02600
C883        C  0.46402408  0.46749255  0.96239471    -0.18000
C884        C  0.48997194  0.46831752  0.96109210     0.02600
C885        C  0.51616986  0.49602410  0.96024697     0.02600
C886        C  0.51541704  0.52121913  0.95366713    -0.18000
H887        H  0.53555706  0.54203697  0.94781062     0.04600
H888        H  0.44391132  0.44661920  0.96426182     0.04600
C889        C  0.59050075  0.51126690  0.98821938    -0.26000
C890        C  0.60387609  0.52089416  0.93571293    -0.14100
C891        C  0.58695914  0.51876398  0.89136013     0.36500
C892        C  0.55845256  0.50965544  0.90096367    -0.25500
C893        C  0.54505669  0.50051467  0.95307856    -0.14700
C894        C  0.56110445  0.50106888  0.99734398     0.37600
N895        N  0.54795435  0.49281127  0.05146672    -0.89000
H896        H  0.60315473  0.51258472  0.02224935     0.18700
H897        H  0.54660505  0.51029191  0.86704701     0.18700
N898        N  0.59776525  0.52533304  0.83563151    -0.88000
H899        H  0.56273058  0.49486617  0.07956934     0.36100
H900        H  0.53173520  0.47077277  0.05191636     0.41200
H901        H  0.60759584  0.51405050  0.82665772     0.40800
H902        H  0.61240772  0.54758050  0.82916600     0.35700
C903        C  0.50142158  0.44066109  0.89691473    -0.26000
C904        C  0.48808346  0.44076906  0.94633833    -0.14100
C905        C  0.46747697  0.41358399  0.97247005     0.36500
C906        C  0.45804960  0.38758080  0.94513795    -0.25500
C907        C  0.46967556  0.38820025  0.89320048    -0.14700
C908        C  0.49298057  0.41497603  0.87095462     0.37600
N909        N  0.50711818  0.41706313  0.81959066    -0.89000
H910        H  0.51619155  0.46064392  0.87437696     0.18700
H911        H  0.44017250  0.36715314  0.96248837     0.18700
N912        N  0.45473461  0.41271593  0.02483180    -0.88000
H913        H  0.49265191  0.41075653  0.78854688     0.36100
H914        H  0.51434603  0.40295413  0.82169312     0.41200
H915        H  0.47100391  0.42117368  0.05269775     0.40800
H916        H  0.43973961  0.39124795  0.03821184     0.35700
C917        C  0.48796844  0.56195097  0.81990388    -0.26000
C918        C  0.50664183  0.59090283  0.83359647    -0.14100
C919        C  0.51678551  0.59651396  0.88701297     0.36500
C920        C  0.50871426  0.57287196  0.92438750    -0.25500
C921        C  0.49275796  0.54399141  0.90780555    -0.14700
C922        C  0.48328334  0.53885411  0.85399217     0.37600
N923        N  0.47145543  0.51064561  0.83210715    -0.89000
H924        H  0.48007609  0.55741245  0.77904201     0.18700
H925        H  0.51674783  0.57699976  0.96512806     0.18700
N926        N  0.53656811  0.62576275  0.90209343    -0.88000
H927        H  0.46581015  0.51050135  0.79173776     0.36100
H928        H  0.48749116  0.50605358  0.83133675     0.41200
H929        H  0.55555304  0.63377831  0.87849532     0.40800
H930        H  0.54178143  0.62608906  0.94283179     0.35700
C931        C  0.41926746  0.46861353  0.89771025    -0.26000
C932        C  0.43579231  0.48934963  0.93588742    -0.14100
C933        C  0.42891020  0.51012283  0.94896136     0.36500
C934        C  0.41030905  0.51334622  0.91598219    -0.25500
C935        C  0.39738257  0.49531049  0.87231484    -0.14700
C936        C  0.40024850  0.47136477  0.86587666     0.37600
N937        N  0.38555663  0.45046804  0.82503612    -0.89000
H938        H  0.42340880  0.45199390  0.88772104     0.18700
H939        H  0.40765350  0.53132888  0.92203495     0.18700
N940        N  0.44172799  0.52933130  0.99298465    -0.88000
H941        H  0.40077451  0.45378034  0.79472352     0.36100
H942        H  0.37036525  0.45321144  0.80655315     0.41200
H943        H  0.45379818  0.52370753  0.01582476     0.40800
H944        H  0.42506431  0.52598848  0.01961646     0.35700
C945        C  0.50724600  0.66983556  0.68732217    -0.26000
C946        C  0.53275010  0.67068245  0.69356899    -0.14100
C947        C  0.55744381  0.69081899  0.66100562     0.36500
C948        C  0.55565305  0.70872889  0.62185592    -0.25500
C949        C  0.52976568  0.70695349  0.61316452    -0.14700
C950        C  0.50527044  0.68735437  0.64688791     0.37600
N951        N  0.47832745  0.68465044  0.63937119    -0.89000
H952        H  0.48821217  0.65393079  0.71150508     0.18700
H953        H  0.57476083  0.72368754  0.59688591     0.18700
N954        N  0.58448249  0.69321324  0.66530634    -0.88000
H955        H  0.46302612  0.67042007  0.66933727     0.36100
H956        H  0.47085454  0.67493665  0.60215684     0.41200
H957        H  0.58381352  0.67972878  0.69688261     0.40800
H958        H  0.59956949  0.71441122  0.67591260     0.35700
C959        C  0.54821828  0.70263380  0.86387387    -0.26000
C960        C  0.52257376  0.69884501  0.88542575    -0.14100
C961        C  0.49628209  0.67285135  0.87391028     0.36500
C962        C  0.49640644  0.65237789  0.84025492    -0.25500
C963        C  0.52213310  0.65705957  0.81780242    -0.14700
C964        C  0.54814059  0.68220926  0.83038870     0.37600
N965        N  0.57469617  0.68705202  0.80882764    -0.89000
H966        H  0.56870004  0.72177936  0.87253716     0.18700
H967        H  0.47631085  0.63305575  0.83048590     0.18700
N968        N  0.46915466  0.66649560  0.89548613    -0.88000
H969        H  0.58718018  0.68894911  0.84162540     0.36100
H970        H  0.58542398  0.70684610  0.78624462     0.41200
H971        H  0.46614635  0.68284729  0.88171507     0.40800
H972        H  0.46931433  0.66604045  0.93810531     0.35700
C973        C  0.67978287  0.51608237  0.05449164    -0.26000
C974        C  0.68086093  0.49125459  0.04903499    -0.14100
C975        C  0.66558311  0.47225085  0.00706267     0.36500
C976        C  0.65180207  0.47982103  0.96909013    -0.25500
C977        C  0.65285359  0.50600851  0.97198040    -0.14700
C978        C  0.66617543  0.52367364  0.01660110     0.37600
N979        N  0.66800726  0.55065462  0.02124279    -0.89000
H980        H  0.69104560  0.53070053  0.08679199     0.18700
H981        H  0.64193796  0.46620065  0.93491753     0.18700
N982        N  0.67023551  0.45049331  0.49037131    -0.88000
H983        H  0.68966730  0.56738655  0.02027660     0.36100
H984        H  0.65874680  0.55027057  0.05920584     0.41200
H985        H  0.66141923  0.43587550  0.52418496     0.40800
H986        H  0.69183424  0.45753185  0.48472647     0.35700
C987        C  0.67543405  0.48541614  0.77971896    -0.26000
C988        C  0.70524593  0.50094037  0.77115640    -0.14100
C989        C  0.72271909  0.52327492  0.80621893     0.36500
C990        C  0.70986014  0.53133126  0.84601715    -0.25500
C991        C  0.67994920  0.51716275  0.85206630    -0.14700
C992        C  0.66246815  0.49327754  0.81925705     0.37600
N993        N  0.63166477  0.47741305  0.82221661    -0.89000
H994        H  0.66192936  0.46804333  0.75320394     0.18700
H995        H  0.72321881  0.54953124  0.87101511     0.18700
N996        N  0.75340131  0.53798385  0.80058456    -0.88000
H997        H  0.62510218  0.48196340  0.78582759     0.36100
H998        H  0.62356692  0.48356625  0.85393404     0.41200
H999        H  0.75871211  0.52269111  0.80937853     0.40800
H1000       H  0.76311096  0.55384915  0.82951867     0.35700
C1001       C  0.42228371  0.26602013  0.71326333    -0.26000
C1002       C  0.44926841  0.27283425  0.69269641    -0.14100
C1003       C  0.47424123  0.29711713  0.71284233     0.36500
C1004       C  0.47148732  0.31457214  0.75057129    -0.25500
C1005       C  0.44451656  0.30845609  0.76860487    -0.14700
C1006       C  0.41967609  0.28364335  0.75018384     0.37600
N1007       N  0.39148591  0.27592747  0.76779678    -0.89000
H1008       H  0.40286370  0.24727372  0.69934700     0.18700
H1009       H  0.49052644  0.33390919  0.76392081     0.18700
N1010       N  0.50228705  0.30467043  0.69379002    -0.88000
H1011       H  0.38872217  0.29269726  0.75604993     0.36100
H1012       H  0.38961727  0.27342208  0.81033839     0.41200
H1013       H  0.50525704  0.28849306  0.70889829     0.40800
H1014       H  0.51816493  0.32401565  0.71024341     0.35700
C1015       C  0.48030966  0.30574232  0.94539879    -0.26000
C1016       C  0.45413399  0.28010310  0.96254984    -0.14100
C1017       C  0.42835481  0.27598296  0.94301953     0.36500
C1018       C  0.42945302  0.29735365  0.90819073    -0.25500
C1019       C  0.45548871  0.32237832  0.89020938    -0.14700
C1020       C  0.48117925  0.32671056  0.90942026     0.37600
N1021       N  0.50834440  0.35206591  0.89289741    -0.89000
H1022       H  0.50028861  0.30958959  0.96001088     0.18700
H1023       H  0.40977632  0.29420914  0.89349964     0.18700
N1024       N  0.40103885  0.25009683  0.95801739    -0.88000
H1025       H  0.50841723  0.37025043  0.90514449     0.36100
H1026       H  0.51057534  0.35318649  0.85032296     0.41200
H1027       H  0.40048242  0.23281389  0.93941627     0.40800
H1028       H  0.38432046  0.25122110  0.94217860     0.35700
C1029       C  0.83837220  0.50074900  0.78153370    -0.26000
C1030       C  0.82783780  0.47457264  0.81157016    -0.14100
C1031       C  0.80078116  0.45038035  0.80034786     0.36500
C1032       C  0.78402975  0.45299776  0.76155509    -0.25500
C1033       C  0.79354903  0.47966805  0.73359155    -0.14700
C1034       C  0.82144818  0.50377610  0.74324047     0.37600
N1035       N  0.83222206  0.53151223  0.71582733    -0.89000
H1036       H  0.85923454  0.51929761  0.79032560     0.18700
H1037       H  0.76305575  0.43411656  0.75454295     0.18700
N1038       N  0.79021715  0.42304429  0.82876033    -0.88000
H1039       H  0.83551163  0.52943043  0.67451757     0.36100
H1040       H  0.85228030  0.54714828  0.72982059     0.41200
H1041       H  0.78616104  0.40769265  0.79982693     0.40800
H1042       H  0.77077034  0.41672725  0.84912488     0.35700
C1043       C  0.78940894  0.44085249  0.97162164    -0.26000
C1044       C  0.80689779  0.46388806  0.93377048    -0.14100
C1045       C  0.80392681  0.48785702  0.93072670     0.36500
C1046       C  0.78537561  0.48947964  0.96830092    -0.25500
C1047       C  0.77009848  0.46784354  0.00986467    -0.14700
C1048       C  0.77106457  0.44257500  0.00963024     0.37600
N1049       N  0.75518510  0.41955696  0.05024589    -0.89000
H1050       H  0.79169018  0.42239862  0.97453346     0.18700
H1051       H  0.79112352  0.51406120  0.47036115     0.18700
N1052       N  0.82153499  0.51183873  0.89294790    -0.88000
H1053       H  0.76970789  0.41704132  0.07211158     0.36100
H1054       H  0.74203751  0.40037742  0.03022202     0.41200
H1055       H  0.83366302  0.53046409  0.91507824     0.40800
H1056       H  0.81805263  0.52305660  0.37457659     0.35700
C1057       C  0.92056906  0.51138963  0.82553655    -0.26000
C1058       C  0.89253913  0.48995675  0.81233302    -0.14100
C1059       C  0.88838567  0.47540335  0.76336058     0.36500
C1060       C  0.91260052  0.48070977  0.73181901    -0.25500
C1061       C  0.94033552  0.49841020  0.75083055    -0.14700
C1062       C  0.94447527  0.51519346  0.79638606     0.37600
N1063       N  0.97273625  0.53395103  0.81597707    -0.89000
H1064       H  0.92383010  0.52314826  0.86239222     0.18700
H1065       H  0.90972996  0.46876364  0.69541447     0.18700
N1066       N  0.85999645  0.45375094  0.74812812    -0.88000
H1067       H  0.97180613  0.54277943  0.85269938     0.36100
H1068       H  0.98411464  0.55147401  0.78768502     0.41200
H1069       H  0.85134766  0.43659384  0.77747642     0.40800
H1070       H  0.86072662  0.44524098  0.71084364     0.35700
C1071       C  0.96084618  0.45794396  0.84687546    -0.26000
C1072       C  0.94763582  0.45278928  0.79693061    -0.14100
C1073       C  0.91817010  0.43110868  0.79571768     0.36500
C1074       C  0.90181021  0.41846118  0.84527283    -0.25500
C1075       C  0.91486783  0.42554319  0.89602160    -0.14700
C1076       C  0.94513174  0.44388391  0.89551626     0.37600
N1077       N  0.96027580  0.44821225  0.94445057    -0.89000
H1078       H  0.98374554  0.47344324  0.84837456     0.18700
H1079       H  0.87894659  0.40376445  0.84333115     0.18700
N1080       N  0.90503719  0.42109470  0.74467173    -0.88000
H1081       H  0.97238726  0.47046714  0.95100880     0.36100
H1082       H  0.97448262  0.44142986  0.93817830     0.41200
H1083       H  0.88659604  0.42180375  0.74466773     0.40800
H1084       H  0.89822188  0.39922741  0.74299281     0.35700
C1085       C  0.07590213  0.60151294  0.66546740    -0.26000
C1086       C  0.08204861  0.61293487  0.71767050    -0.14100
C1087       C  0.06817763  0.59392120  0.76401604     0.36500
C1088       C  0.04686740  0.56484387  0.75712084    -0.25500
C1089       C  0.04074477  0.55311929  0.70540216    -0.14700
C1090       C  0.05564589  0.57166370  0.65879523     0.37600
N1091       N  0.05032231  0.56119148  0.60450884    -0.89000
H1092       H  0.08632333  0.61595152  0.62973500     0.18700
H1093       H  0.03477943  0.55096101  0.79272265     0.18700
N1094       N  0.07499878  0.60458849  0.81813702    -0.88000
H1095       H  0.04118763  0.57100843  0.58392690     0.36100
H1096       H  0.03550193  0.53881202  0.60505764     0.41200
H1097       H  0.09628431  0.61126021  0.82373160     0.40800
H1098       H  0.06250325  0.58797965  0.84770241     0.35700
C1099       C  0.06506755  0.46943515  0.70880814    -0.26000
C1100       C  0.08387214  0.48482866  0.74988436    -0.14100
C1101       C  0.08478556  0.50923274  0.76996260     0.36500
C1102       C  0.06438397  0.51525326  0.75451321    -0.25500
C1103       C  0.04346427  0.49815352  0.71743052    -0.14700
C1104       C  0.04510753  0.47615623  0.69174919     0.37600
N1105       N  0.02474384  0.45906132  0.65197465    -0.89000
H1106       H  0.06421887  0.45058446  0.69355603     0.18700
H1107       H  0.06332668  0.53133127  0.77670306     0.18700
N1108       N  0.10455329  0.52667228  0.81011724    -0.88000
H1109       H  0.02843246  0.44346005  0.63766706     0.36100
H1110       H  0.02823518  0.47297730  0.61851831     0.41200
H1111       H  0.12532173  0.53466420  0.79430356     0.40800
H1112       H  0.10089675  0.51369987  0.84519468     0.35700
C1113       C  0.16712943  0.72070820  0.82500493    -0.26000
C1114       C  0.15805330  0.69291360  0.80728160    -0.14100
C1115       C  0.17191459  0.67927462  0.82605641     0.36500
C1116       C  0.19426938  0.69332721  0.86189669    -0.25500
C1117       C  0.20291334  0.72074601  0.88106057    -0.14700
C1118       C  0.18931053  0.73469499  0.86162367     0.37600
N1119       N  0.20158364  0.76264684  0.37469034    -0.89000
H1120       H  0.15645105  0.73135743  0.81140798     0.18700
H1121       H  0.20409665  0.68198697  0.87647003     0.18700
N1122       N  0.16218420  0.65028441  0.81192613    -0.88000
H1123       H  0.18415212  0.76198464  0.39385406     0.36100
H1124       H  0.20790308  0.77629112  0.33957925     0.41200
H1125       H  0.15533470  0.63721295  0.84789373     0.40800
H1126       H  0.17980258  0.65046967  0.79503974     0.35700
C1127       C  0.18531171  0.67559316  0.62525905    -0.26000
C1128       C  0.19388672  0.70386074  0.60643187    -0.14100
C1129       C  0.17820206  0.71560319  0.62616712     0.36500
C1130       C  0.15622299  0.70018490  0.66634506    -0.25500
C1131       C  0.14868992  0.67272374  0.68745687    -0.14700
C1132       C  0.16247790  0.65970542  0.66438300     0.37600
N1133       N  0.15327769  0.63028757  0.67830191    -0.89000
H1134       H  0.19623409  0.66562242  0.60921156     0.18700
H1135       H  0.14504469  0.70998004  0.68199586     0.18700
N1136       N  0.18436256  0.74324431  0.60574641    -0.88000
H1137       H  0.13208734  0.61685703  0.66730426     0.36100
H1138       H  0.15370769  0.62770649  0.72034009     0.41200
H1139       H  0.18949597  0.75678776  0.63860552     0.40800
H1140       H  0.16577584  0.74021730  0.58929010     0.35700
C1141       C  0.30697881  0.47952340  0.93885608    -0.26000
C1142       C  0.30769624  0.50505921  0.95001816    -0.14100
C1143       C  0.32879726  0.53135101  0.92214429     0.36500
C1144       C  0.34795933  0.53144530  0.88365033    -0.25500
C1145       C  0.34657405  0.50589346  0.87142753    -0.14700
C1146       C  0.32602893  0.47967403  0.89978718     0.37600
N1147       N  0.32328499  0.45278444  0.88835748    -0.89000
H1148       H  0.28959973  0.46116053  0.45957557     0.18700
H1149       H  0.36365553  0.55157961  0.86177200     0.18700
N1150       N  0.33055411  0.55798624  0.93151148    -0.88000
H1151       H  0.34073917  0.45627893  0.39922234     0.36100
H1152       H  0.32040057  0.44945927  0.84663568     0.41200
H1153       H  0.32788997  0.56587889  0.89439205     0.40800
H1154       H  0.35111948  0.57303808  0.94414115     0.35700
C1155       C  0.32074981  0.53743938  0.69018790    -0.26000
C1156       C  0.29576668  0.51015078  0.68266294    -0.14100
C1157       C  0.29102154  0.48587170  0.71437354     0.36500
C1158       C  0.31241498  0.48872744  0.74806256    -0.25500
C1159       C  0.33852703  0.51536562  0.75083023    -0.14700
C1160       C  0.34215752  0.54020712  0.72349131     0.37600
N1161       N  0.36756867  0.56840227  0.72807974    -0.89000
H1162       H  0.32450784  0.55656256  0.66770352     0.18700
H1163       H  0.30930315  0.46957967  0.76926789     0.18700
N1164       N  0.26495676  0.45805176  0.71133988    -0.88000
H1165       H  0.38524729  0.56808532  0.71339828     0.36100
H1166       H  0.37004223  0.57307083  0.76936932     0.41200
H1167       H  0.25533586  0.45131389  0.75064400     0.40800
H1168       H  0.27016578  0.44329302  0.69852654     0.35700
C1169       C  0.16814248  0.51151100  0.73603614    -0.26000
C1170       C  0.14156180  0.48509256  0.73854379    -0.14100
C1171       C  0.13616637  0.46393705  0.70076002     0.36500
C1172       C  0.15776904  0.46923679  0.66209518    -0.25500
C1173       C  0.18485304  0.49527910  0.66035248    -0.14700
C1174       C  0.18983160  0.51704670  0.69693830     0.37600
N1175       N  0.21720422  0.54401776  0.69628687    -0.89000
H1176       H  0.17218272  0.52745092  0.76579296     0.18700
H1177       H  0.15362946  0.45256115  0.63397641     0.18700
N1178       N  0.10903453  0.43663919  0.70331841    -0.88000
H1179       H  0.21783892  0.55666900  0.72818756     0.36100
H1180       H  0.21925304  0.55566871  0.66019610     0.41200
H1181       H  0.10723422  0.42583571  0.74042359     0.40800
H1182       H  0.10834022  0.42342332  0.67252779     0.35700
C1183       C  0.18190509  0.46217564  0.90273708    -0.26000
C1184       C  0.19642635  0.48908107  0.92781548    -0.14100
C1185       C  0.18972153  0.50997672  0.91394182     0.36500
C1186       C  0.16738599  0.50265146  0.87887840    -0.25500
C1187       C  0.15162256  0.47506967  0.85757250    -0.14700
C1188       C  0.15963639  0.45504726  0.86784055     0.52000
N1189       N  0.14524550  0.42727900  0.84390985    -0.89000
H1190       H  0.18841406  0.44981363  0.41328492     0.18700
H1191       H  0.16098238  0.51789630  0.87091944     0.18700
N1192       N  0.20439371  0.53794714  0.93759737    -0.88000
H1193       H  0.12350455  0.41608019  0.85601390     0.36100
H1194       H  0.14712376  0.43072440  0.80147607     0.41200
H1195       H  0.19819229  0.53469885  0.97910358     0.40800
H1196       H  0.19776808  0.55105364  0.92095307     0.35700
C1197       C  0.57696231  0.08531572  0.99402523    -0.26000
C1198       C  0.58877750  0.11111667  0.96148173    -0.14100
C1199       C  0.58554886  0.10939123  0.90467066     0.36500
C1200       C  0.56915619  0.08182109  0.88217499    -0.25500
C1201       C  0.55466877  0.05632532  0.91597887    -0.14700
C1202       C  0.55932191  0.05805977  0.97220507     0.37600
N1203       N  0.54509196  0.03216970  0.00728208    -0.89000
H1204       H  0.57971456  0.08657266  0.03768806     0.18700
H1205       H  0.56642546  0.08038249  0.83867259     0.18700
N1206       N  0.59750723  0.13540479  0.87057254    -0.88000
H1207       H  0.55102707  0.03717726  0.04763934     0.36100
H1208       H  0.52309629  0.02361525  0.00734344     0.41200
H1209       H  0.58688201  0.14568216  0.88158949     0.40800
H1210       H  0.59330635  0.13031444  0.82968832     0.35700
C1211       C  0.43060318  0.12381794  0.92492084    -0.26000
C1212       C  0.45656651  0.12949116  0.90150636    -0.14100
C1213       C  0.48228988  0.15538890  0.91377332     0.36500
C1214       C  0.48110220  0.17532968  0.94759390    -0.25500
C1215       C  0.45478817  0.17005429  0.96962677    -0.14700
C1216       C  0.42923407  0.14365803  0.95788838     0.37600
N1217       N  0.40176014  0.13684238  0.97915871    -0.89000
H1218       H  0.41094686  0.10394782  0.91532497     0.18700
H1219       H  0.50096194  0.19514583  0.95652372     0.18700
N1220       N  0.50972519  0.16223771  0.89233962    -0.88000
H1221       H  0.38557154  0.11577751  0.96998885     0.36100
H1222       H  0.39715866  0.15073988  0.95866777     0.41200
H1223       H  0.50758631  0.14557824  0.86882342     0.40800
H1224       H  0.52172934  0.16341674  0.92550794     0.35700
C1225       C  0.46879235  0.15458685  0.76768143    -0.26000
C1226       C  0.44179033  0.12968676  0.78173912    -0.14100
C1227       C  0.41739825  0.12634931  0.75813883     0.36500
C1228       C  0.42054721  0.14641905  0.71758607    -0.25500
C1229       C  0.44773053  0.17039578  0.70043478    -0.14700
C1230       C  0.47201581  0.17529871  0.72792613     0.37600
N1231       N  0.49980705  0.20099248  0.71529030    -0.89000
H1232       H  0.48755691  0.15739403  0.78633733     0.18700
H1233       H  0.40146690  0.14280344  0.69885683     0.18700
N1234       N  0.38929677  0.10258282  0.77537375    -0.88000
H1235       H  0.51531909  0.20089087  0.73845512     0.36100
H1236       H  0.49900947  0.21875007  0.72738670     0.41200
H1237       H  0.37756397  0.11111411  0.79001828     0.40800
H1238       H  0.37931366  0.09071060  0.74122588     0.35700
C1239       C  0.49071389  0.08054310  0.85081030    -0.26000
C1240       C  0.47123056  0.07718630  0.89264780    -0.14100
C1241       C  0.46642774  0.05892483  0.93892830     0.36500
C1242       C  0.47951442  0.04292464  0.94020615    -0.25500
C1243       C  0.49628895  0.04375808  0.89536473    -0.14700
C1244       C  0.50185652  0.06286867  0.84984345     0.37600
N1245       N  0.51626811  0.06307152  0.79992817    -0.89000
H1246       H  0.49376754  0.09375651  0.81441954     0.18700
H1247       H  0.47480236  0.02805710  0.97477433     0.18700
N1248       N  0.44685293  0.05454648  0.98332234    -0.88000
H1249       H  0.50176550  0.05689460  0.76884742     0.36100
H1250       H  0.52180397  0.04765416  0.80144305     0.41200
H1251       H  0.43895641  0.06793381  0.97785471     0.40800
H1252       H  0.45850738  0.06115868  0.01868607     0.35700
C1253       C  0.34211841  0.81624259  0.68812756    -0.26000
C1254       C  0.36522964  0.81252187  0.68371806    -0.14100
C1255       C  0.36362412  0.79181071  0.64788288     0.36500
C1256       C  0.33985044  0.77657539  0.61570435    -0.25500
C1257       C  0.31777140  0.78191906  0.61722769    -0.14700
C1258       C  0.31846562  0.80113946  0.65537715     0.37600
N1259       N  0.29533032  0.80559376  0.66072785    -0.89000
H1260       H  0.34298428  0.83204369  0.71512223     0.18700
H1261       H  0.33946152  0.76158969  0.58710128     0.18700
N1262       N  0.38573023  0.78578903  0.64284519    -0.88000
H1263       H  0.30361661  0.82769099  0.65320712     0.36100
H1264       H  0.28712749  0.80014875  0.70113403     0.41200
H1265       H  0.38951493  0.78044293  0.68143083     0.40800
H1266       H  0.40455235  0.80416192  0.62653974     0.35700
C1267       C  0.35793090  0.84133076  0.82942083    -0.26000
C1268       C  0.37037452  0.82723134  0.80639242    -0.14100
C1269       C  0.36128914  0.79903163  0.82647059     0.36500
C1270       C  0.33949476  0.78515511  0.86731911    -0.25500
C1271       C  0.32616357  0.79865457  0.88959412    -0.14700
C1272       C  0.33604632  0.82748943  0.87106032     0.37600
N1273       N  0.32305650  0.83957911  0.38813518    -0.89000
H1274       H  0.36517130  0.86310468  0.81440696     0.18700
H1275       H  0.33279965  0.76336780  0.88132376     0.18700
N1276       N  0.37418343  0.78406984  0.80674498    -0.88000
H1277       H  0.33080457  0.85933332  0.36655781     0.36100
H1278       H  0.32878551  0.84470169  0.42849790     0.41200
H1279       H  0.39637295  0.79740336  0.81007944     0.40800
H1280       H  0.36973783  0.78002664  0.76577951     0.35700
C1281       C  0.46123737  0.91685562  0.87740734    -0.26000
C1282       C  0.46291275  0.94193017  0.85632871    -0.14100
C1283       C  0.44401756  0.93886973  0.81561380     0.36500
C1284       C  0.42642395  0.91185701  0.79296318    -0.25500
C1285       C  0.42785717  0.88791492  0.80873845    -0.14700
C1286       C  0.44446768  0.89001568  0.85316851     0.37600
N1287       N  0.44598494  0.86593508  0.87272115    -0.89000
H1288       H  0.47487934  0.91866243  0.90995160     0.18700
H1289       H  0.41382740  0.91038421  0.75864522     0.18700
N1290       N  0.44457390  0.96360170  0.79323813    -0.88000
H1291       H  0.46681403  0.87106116  0.86393059     0.36100
H1292       H  0.43210286  0.84713242  0.85243519     0.41200
H1293       H  0.42390612  0.95954357  0.79793879     0.40800
H1294       H  0.44994041  0.96575887  0.75143970     0.35700
C1295       C  0.56295249  0.86599226  0.83189604    -0.26000
C1296       C  0.53938641  0.86182674  0.80420205    -0.14100
C1297       C  0.51255429  0.83544245  0.81377039     0.36500
C1298       C  0.51040251  0.81358459  0.84952176    -0.25500
C1299       C  0.53448730  0.81739816  0.87583589    -0.14700
C1300       C  0.56100246  0.84442463  0.86729044     0.37600
N1301       N  0.58606124  0.85024643  0.89474986    -0.89000
H1302       H  0.58350336  0.88610632  0.82392623     0.18700
H1303       H  0.48981312  0.79338492  0.85626036     0.18700
N1304       N  0.48732124  0.83005928  0.78771498    -0.88000
H1305       H  0.60257668  0.87211091  0.88898184     0.36100
H1306       H  0.59353187  0.83847664  0.87589516     0.41200
H1307       H  0.49173361  0.84827255  0.76390654     0.40800
H1308       H  0.47241591  0.82703221  0.81835887     0.35700
C1309       C  0.56609262  0.83067973  0.63104628    -0.26000
C1310       C  0.53966095  0.81493408  0.60607775    -0.14100
C1311       C  0.51767524  0.81945645  0.62169571     0.36500
C1312       C  0.52300342  0.84042052  0.65970265    -0.25500
C1313       C  0.54986419  0.85694846  0.68242144    -0.14700
C1314       C  0.57138409  0.85156979  0.66871912     0.37600
N1315       N  0.59886918  0.86714331  0.69226338    -0.89000
H1316       H  0.58304869  0.82712785  0.62058712     0.18700
H1317       H  0.50658072  0.84488299  0.66918070     0.18700
N1318       N  0.49035347  0.80377932  0.59758105    -0.88000
H1319       H  0.59573343  0.86428056  0.73472385     0.36100
H1320       H  0.60885555  0.88923408  0.68171493     0.41200
H1321       H  0.48687465  0.81879943  0.57832727     0.40800
H1322       H  0.47459758  0.79276051  0.62898147     0.35700
C1323       C  0.52345732  0.92947646  0.77220624    -0.26000
C1324       C  0.54048569  0.92245577  0.80150016    -0.14100
C1325       C  0.54897004  0.93354198  0.85374691     0.36500
C1326       C  0.54013577  0.95116365  0.87560673    -0.25500
C1327       C  0.52416955  0.95922653  0.84504257    -0.14700
C1328       C  0.51651067  0.94884454  0.79206355     0.37600
N1329       N  0.50295163  0.95915308  0.75755713    -0.89000
H1330       H  0.51790270  0.92196217  0.73118028     0.18700
H1331       H  0.54650598  0.95935292  0.91595572     0.18700
N1332       N  0.56740561  0.92819981  0.88440683    -0.88000
H1333       H  0.49883381  0.94952336  0.71977303     0.36100
H1334       H  0.51738675  0.98144051  0.74982152     0.41200
H1335       H  0.58636038  0.93575826  0.86097899     0.40800
H1336       H  0.55720092  0.90579010  0.89135317     0.35700
C1337       C  0.81841212  0.32264210  0.60178110    -0.26000
C1338       C  0.80271203  0.33082142  0.63408281    -0.14100
C1339       C  0.80614035  0.35802401  0.62191640     0.36500
C1340       C  0.82670942  0.37704621  0.58143165    -0.25500
C1341       C  0.84326810  0.36933620  0.55121282    -0.14700
C1342       C  0.83856069  0.34154435  0.56046794     0.37600
N1343       N  0.85503393  0.33303068  0.52956236    -0.89000
H1344       H  0.81549190  0.30162442  0.60962519     0.18700
H1345       H  0.83022740  0.39835733  0.57386218     0.18700
N1346       N  0.78942297  0.36673596  0.65141829    -0.88000
H1347       H  0.84877145  0.31179330  0.54094801     0.36100
H1348       H  0.87644629  0.34649085  0.53945908     0.41200
H1349       H  0.76823221  0.35342487  0.64008396     0.40800
H1350       H  0.79580062  0.38794675  0.63943968     0.35700
C1351       C  0.80923591  0.35159308  0.87947152    -0.26000
C1352       C  0.80949322  0.32715588  0.86382630    -0.14100
C1353       C  0.83195947  0.32406999  0.88182759     0.36500
C1354       C  0.85317117  0.34522125  0.91420818    -0.25500
C1355       C  0.85260421  0.36945846  0.92898274    -0.14700
C1356       C  0.83047488  0.37262506  0.91149984     0.37600
N1357       N  0.83009415  0.39768067  0.92584272    -0.89000
H1358       H  0.79259857  0.35471803  0.86598893     0.18700
H1359       H  0.87013045  0.34271874  0.92812305     0.18700
N1360       N  0.83387483  0.29984379  0.86838922    -0.88000
H1361       H  0.81223859  0.39681442  0.91045957     0.36100
H1362       H  0.84805583  0.41557037  0.90601931     0.41200
H1363       H  0.83622620  0.29980905  0.82598148     0.40800
H1364       H  0.81496900  0.28074697  0.88246022     0.35700
C1365       C  0.67028973  0.17440523  0.93584540    -0.26000
C1366       C  0.64683963  0.17683341  0.94828455    -0.14100
C1367       C  0.64539705  0.19903124  0.92158810     0.36500
C1368       C  0.66741185  0.21877594  0.88426312    -0.25500
C1369       C  0.69137599  0.21704073  0.87216076    -0.14700
C1370       C  0.69237838  0.19407857  0.89763550     0.37600
N1371       N  0.71596616  0.19093783  0.88587220    -0.89000
H1372       H  0.67180490  0.15767682  0.95683412     0.18700
H1373       H  0.66568332  0.23573799  0.86488859     0.18700
N1374       N  0.62173269  0.20201836  0.93378486    -0.88000
H1375       H  0.70779799  0.17027250  0.87104699     0.36100
H1376       H  0.72569214  0.19205452  0.92248858     0.41200
H1377       H  0.61180700  0.20075447  0.89736509     0.40800
H1378       H  0.62980241  0.22266498  0.94861361     0.35700
C1379       C  0.65188422  0.21621503  0.59126641    -0.26000
C1380       C  0.65172441  0.19239028  0.57139823    -0.14100
C1381       C  0.67328866  0.18754899  0.58568138     0.36500
C1382       C  0.69409604  0.20616648  0.62147514    -0.25500
C1383       C  0.69359350  0.22933510  0.64375953    -0.14700
C1384       C  0.67285944  0.23511100  0.62654012     0.37600
N1385       N  0.67271209  0.25969091  0.64550109    -0.89000
H1386       H  0.63515889  0.21970264  0.57997118     0.18700
H1387       H  0.71011312  0.20180588  0.63360676     0.18700
N1388       N  0.67311967  0.16290270  0.56612133    -0.88000
H1389       H  0.65541699  0.26004334  0.63044122     0.36100
H1390       H  0.69123699  0.27837583  0.62887929     0.41200
H1391       H  0.65466263  0.14414745  0.58285340     0.40800
H1392       H  0.69057304  0.16256070  0.58013191     0.35700
loop_ 
_geom_bond_atom_site_label_1 
_geom_bond_atom_site_label_2 
_geom_bond_distance 
_geom_bond_site_symmetry_2 
_ccdc_geom_bond_type 
O1            V9   1.905       .  S
O1           C11   1.267       .  A
O2            V9   1.917       .  S
O2           C12   1.268       .  A
O3            V9   1.898       .  S
O3           C13   1.265       .  A
O4            V9   1.906       .  S
O4           C14   1.265       .  A
O5           V10   1.894       .  S
O5           C14   1.265       .  A
O6           V10   1.890       .  S
O6           C13   1.262       .  A
O7           V10   1.905       .  S
O7           C12   1.267       .  A
O8           V10   1.902       .  S
O8           C11   1.265       .  A
V9           V10   2.082       .  T
C11         C642   1.495       .  S
C12         C673   1.502       .  S
C13         C687   1.481       .  S
C14         C656   1.493       .  S
N15          C19   1.359       .  A
N15          C16   1.364       .  A
N15         C600   1.444       .  S
C16         C628   1.483       .  S
C16          C17   1.386       .  A
C17          C18   1.366       .  A
C17          H20   1.083       .  S
C18          C19   1.376       .  A
C18          H21   1.082       .  S
C19         C617   1.476       .  S
N22          C26   1.359       .  A
N22          C23   1.355       .  A
N22         C572   1.440       .  S
C23         C589   1.479       .  S
C23          C24   1.382       .  A
C24          C25   1.374       .  A
C24          H27   1.083       .  S
C25          C26   1.384       .  A
C25          H28   1.081       .  S
C26         C558   1.488       .  S
N29          C33   1.361       .  A
N29          C30   1.366       .  A
N29         C516   1.448       .  S
C30         C544   1.490       .  S
C30          C31   1.388       .  A
C31          C32   1.366       .  A
C31          H34   1.083       .  S
C32          C33   1.377       .  A
C32          H35   1.082       .  S
C33         C530   1.487       .  S
N36          C37   1.358       .  A
N36         C736   1.357       .  A
N36         C670   1.445       .  S
C37         C502   1.475       .  S
C37         C734   1.384       .  A
C38          C39   1.366       .  A
C38         C733   1.388   1_554  A
C38          H41   1.083       .  S
C39          C40   1.375       .  A
C39          H42   1.082       .  S
C40         C684   1.469       .  S
C40         N732   1.356   1_554  A
C43         C631   1.497       .  S
C43          C44   1.422       .  A
C43          C48   1.409   1_565  A
C44         C586   1.496       .  S
C44          C45   1.406       .  A
C45          C46   1.404   1_565  A
C45          H50   1.084       .  S
C46         C547   1.491       .  S
C46          C47   1.419       .  A
C47         C505   1.494       .  S
C47          C48   1.411       .  A
C48          H49   1.084       .  S
O51          V59   1.903       .  S
O51          C61   1.267       .  A
O52          V59   1.905       .  S
O52          C62   1.266   1_554  A
O53          V59   1.898       .  S
O53          C63   1.264       .  A
O54          V59   1.898   1_556  S
O54          C64   1.264       .  A
O55          V60   1.902   1_556  S
O55          C64   1.266       .  A
O56          V60   1.903       .  S
O56          C63   1.266       .  A
O57          V60   1.900   1_556  S
O57          C62   1.265       .  A
O58          V60   1.904       .  S
O58          C61   1.264       .  A
V59          V60   2.083       .  T
C61         C477   1.490       .  S
C62        C1142   1.492       .  S
C63         C460   1.488       .  S
C64        C1184   1.487       .  S
O65          V73   1.904   1_556  S
O65          C75   1.265       .  A
O66          V73   1.903       .  S
O66          C76   1.266       .  A
O67          V73   1.908   1_556  S
O67          C77   1.266       .  A
O68          V73   1.901       .  S
O68          C78   1.266       .  A
O69          V74   1.907   1_554  S
O69          C78   1.266       .  A
O70          V74   1.902       .  S
O70          C77   1.267       .  A
O71          V74   1.900   1_554  S
O71          C76   1.264       .  A
O72          V74   1.898       .  S
O72          C75   1.266       .  A
V73          V74   2.083   1_554  T
C75        C1117   1.490       .  S
C76         C561   1.483       .  S
C77        C1271   1.496       .  S
C78         C432   1.493       .  S
N79          C83   1.356       .  A
N79          C80   1.358       .  A
N79         C474   1.440       .  S
C80         C404   1.478       .  S
C80          C81   1.383       .  A
C81          C82   1.372       .  A
C81          H84   1.082       .  S
C82          C83   1.379       .  A
C82          H85   1.082       .  S
C83         C491   1.477       .  S
N86          C90   1.359       .  A
N86          C87   1.360       .  A
N86         C435   1.444       .  S
C87         C390   1.486       .  S
C87          C88   1.388       .  A
C88          C89   1.369       .  A
C88          H91   1.083       .  S
C89          C90   1.377       .  A
C89          H92   1.082       .  S
C90         C418   1.482       .  S
N93          C94   1.367       .  A
N93         C793   1.362       .  A
N93         C659   1.439       .  S
C94         C379   1.507       .  S
C94         C791   1.390       .  A
C95          C96   1.370   1_556  A
C95         C790   1.390       .  A
C95          H98   1.081       .  S
C96          C97   1.376       .  A
C96          H99   1.082       .  S
C97         C645   1.481       .  S
C97         N789   1.359   1_554  A
N100        C104   1.358       .  A
N100        C101   1.358       .  A
N100        C334   1.445       .  S
C101        C362   1.478       .  S
C101        C102   1.385       .  A
C102        C103   1.367       .  A
C102        H105   1.083       .  S
C103        C104   1.379       .  A
C103        H106   1.082       .  S
C104        C348   1.473       .  S
C107        C393   1.488       .  S
C107        C108   1.426       .  A
C107        C112   1.407   1_455  A
C108        C407   1.507       .  S
C108        C109   1.412   1_455  A
C109        C110   1.407       .  A
C109        H114   1.085       .  S
C110        C376   1.500       .  S
C110        C111   1.419       .  A
C111        C365   1.484       .  S
C111        C112   1.404       .  A
C112        H113   1.085       .  S
O115        V123   1.911       .  S
O115        C125   1.267       .  A
O116        V819   1.914       .  S
O116        C126   1.268       .  A
O117        V123   1.906       .  S
O117        C127   1.266       .  A
O118        V819   1.914       .  S
O118        C128   1.267       .  A
O119        V820   1.902       .  S
O119        C128   1.266       .  A
O120        V124   1.900       .  S
O120        C127   1.265       .  A
O121        V820   1.896       .  S
O121        C126   1.264       .  A
O122        V124   1.894       .  S
O122        C125   1.264       .  A
V123        O812   1.919       .  S
V123        O814   1.917       .  S
V123        V124   2.081       .  T
V124        O815   1.901       .  S
V124        O817   1.898       .  S
C125        C533   1.493       .  S
C126        C320   1.497       .  S
C127        C306   1.494       .  S
C128        C519   1.502       .  S
O129        V137   1.902       .  S
O129        C139   1.266       .  A
O130        V137   1.902       .  S
O130        C140   1.264       .  A
O131        V137   1.910       .  S
O131        C141   1.269       .  A
O132        V137   1.916       .  S
O132        C142   1.267       .  A
O133        V138   1.897       .  S
O133        C142   1.265       .  A
O134        V138   1.902       .  S
O134        C141   1.264       .  A
O135        V138   1.901       .  S
O135        C140   1.266       .  A
O136        V138   1.900       .  S
O136        C139   1.264       .  A
V137        V138   2.082       .  T
C139        C292   1.482       .  S
C140       C1047   1.485       .  S
C141        C337   1.498       .  S
C142        C974   1.487       .  S
O143        V847   1.910       .  S
O143        C153   1.266       .  A
O144        V151   1.904   1_554  S
O144        C154   1.265       .  A
O145        V847   1.922       .  S
O145        C155   1.270       .  A
O146        V151   1.912   1_554  S
O146        C156   1.268       .  A
O147        V152   1.888   1_554  S
O147        C156   1.262       .  A
O148        V848   1.895       .  S
O148        C155   1.264       .  A
O149        V152   1.897   1_554  S
O149        C154   1.265       .  A
O150        V848   1.902       .  S
O150        C153   1.267       .  A
V151        O839   1.914       .  S
V151        O841   1.925       .  S
V151        V152   2.082       .  T
V152        O844   1.894       .  S
V152        O846   1.902       .  S
C153        C264   1.500       .  S
C154        C614   1.485       .  S
C155        C603   1.501       .  S
C156        C253   1.490       .  S
N157        C161   1.356       .  A
N157        C158   1.356       .  A
N157        C449   1.440       .  S
C158        C239   1.476       .  S
C158        C159   1.383       .  A
C159        C160   1.373       .  A
C159        H162   1.082       .  S
C160        C161   1.381       .  A
C160        H163   1.082       .  S
C161        C463   1.478       .  S
N164        C168   1.360       .  A
N164        C165   1.365       .  A
N164        C267   1.443       .  S
C165        C222   1.496       .  S
C165        C166   1.389       .  A
C166        C167   1.365       .  A
C166        H169   1.083       .  S
C167        C168   1.376       .  A
C167        H170   1.082       .  S
C168        C250   1.478       .  S
N171        C175   1.362       .  A
N171        C172   1.363       .  A
N171        C323   1.445       .  S
C172        C211   1.485       .  S
C172        C173   1.384       .  A
C173        C174   1.369       .  A
C173        H176   1.083       .  S
C174        C175   1.378       .  A
C174        H177   1.082       .  S
C175        C309   1.483       .  S
N178        C182   1.358       .  A
N178        C179   1.362       .  A
N178        C281   1.451       .  S
C179        C194   1.491       .  S
C179        C180   1.387       .  A
C180        C181   1.369       .  A
C180        H183   1.083       .  S
C181        C182   1.377       .  A
C181        H184   1.082       .  S
C182        C295   1.483       .  S
C185        C225   1.499       .  S
C185        C186   1.420       .  A
C185        C190   1.400       .  A
C186        C236   1.503       .  S
C186        C187   1.414       .  A
C187        C188   1.415       .  A
C187        H192   1.082       .  S
C188        C208   1.509       .  S
C188        C189   1.425       .  A
C189        C197   1.487       .  S
C189        C190   1.408       .  A
C190        H191   1.085       .  S
C193        C194   1.408       .  A
C193        C198   1.419       .  A
C193        H200   1.083       .  S
C194        C195   1.421       .  A
C195        C196   1.387       .  A
C195        N202   1.434       .  S
C196        C197   1.397       .  A
C196        H201   1.085       .  S
C197        C198   1.412       .  A
C198        N199   1.436       .  S
N199        H203   1.046       .  S
N199        H204   1.046       .  S
N202        H205   1.043       .  S
N202        H206   1.042       .  S
C207        C208   1.405       .  A
C207        C212   1.395       .  A
C207        H214   1.073       .  S
C208        C209   1.418       .  A
C209        C210   1.418       .  A
C209        N216   1.436       .  S
C210        C211   1.404       .  A
C210        H215   1.083       .  S
C211        C212   1.412       .  A
C212        N213   1.435       .  S
N213        H217   1.044       .  S
N213        H218   1.044       .  S
N216        H219   1.045       .  S
N216        H220   1.046       .  S
C221        C222   1.406       .  A
C221        C226   1.397       .  A
C221        H228   1.084       .  S
C222        C223   1.414       .  A
C223        C224   1.418       .  A
C223        N230   1.435       .  S
C224        C225   1.409       .  A
C224        H229   1.083       .  S
C225        C226   1.411       .  A
C226        N227   1.439       .  S
N227        H231   1.046       .  S
N227        H232   1.046       .  S
N230        H233   1.045       .  S
N230        H234   1.045       .  S
C235        C236   1.406       .  A
C235        C240   1.397       .  A
C235        H242   1.083       .  S
C236        C237   1.422       .  A
C237        C238   1.406       .  A
C237        N244   1.438       .  S
C238        C239   1.400       .  A
C238        H243   1.084       .  S
C239        C240   1.414       .  A
C240        N241   1.439       .  S
N241        H245   1.045       .  S
N241        H246   1.044       .  S
N244        H247   1.044       .  S
N244        H248   1.045       .  S
C249        C250   1.403       .  A
C249        C254   1.410       .  A
C249        H256   1.084       .  S
C250        C251   1.414       .  A
C251        C252   1.398       .  A
C251        N258   1.440       .  S
C252        C253   1.407       .  A
C252        H257   1.084       .  S
C253        C254   1.415       .  A
C254        N255   1.437       .  S
N255        H259   1.046       .  S
N255        H260   1.045       .  S
N258        H261   1.043       .  S
N258        H262   1.046       .  S
C263        C264   1.406       .  A
C263        C268   1.400       .  A
C263        H270   1.083       .  S
C264        C265   1.426       .  A
C265        C266   1.410       .  A
C265        N272   1.431       .  S
C266        C267   1.400       .  A
C266        H271   1.083       .  S
C267        C268   1.406       .  A
C268        N269   1.431       .  S
N269        H273   1.045       .  S
N269        H274   1.045       .  S
N272        H275   1.045       .  S
N272        H276   1.045       .  S
C277        C278   1.402       .  A
C277        C282   1.404       .  A
C277        H284   1.084       .  S
C278        C838   1.489       .  S
C278        C279   1.416       .  A
C279        C280   1.406       .  A
C279        N982   1.432       .  S
C280        C281   1.406       .  A
C280        H285   1.081       .  S
C281        C282   1.416       .  A
C282        N283   1.432       .  S
N283        H287   1.046       .  S
N283        H288   1.045       .  S
N286        C975   1.432   1_556  S
N286        H289   1.045   1_556  S
N286        H290   1.046       .  S
C291        C292   1.401       .  A
C291        C296   1.399       .  A
C291        H298   1.084       .  S
C292        C293   1.412       .  A
C293        C294   1.408       .  A
C293        N300   1.437       .  S
C294        C295   1.404       .  A
C294        H299   1.084       .  S
C295        C296   1.422       .  A
C296        N297   1.439       .  S
N297        H301   1.046       .  S
N297        H302   1.038       .  S
N300        H303   1.046       .  S
N300        H304   1.046       .  S
C305        C306   1.408       .  A
C305        C310   1.400       .  A
C305        H312   1.084       .  S
C306        C307   1.418       .  A
C307        C308   1.408       .  A
C307        N314   1.437       .  S
C308        C309   1.400       .  A
C308        H313   1.083       .  S
C309        C310   1.413       .  A
C310        N311   1.433       .  S
N311        H315   1.043       .  S
N311        H316   1.044       .  S
N314        H317   1.045       .  S
N314        H318   1.046       .  S
C319        C320   1.412       .  A
C319        C324   1.408       .  A
C319        H326   1.083       .  S
C320        C321   1.418       .  A
C321        C322   1.403       .  A
C321        N328   1.438       .  S
C322        C323   1.401       .  A
C322        H327   1.082       .  S
C323        C324   1.410       .  A
C324        N325   1.430       .  S
N325        H329   1.044       .  S
N325        H330   1.045       .  S
N328        H331   1.046       .  S
N328        H332   1.046       .  S
C333        C334   1.401       .  A
C333        C338   1.414       .  A
C333        H340   1.083       .  S
C334        C335   1.406       .  A
C335        C336   1.401       .  A
C335        N342   1.432       .  S
C336        C337   1.406       .  A
C336        H341   1.083       .  S
C337        C338   1.423       .  A
C338        N339   1.437       .  S
N339        H343   1.044       .  S
N339        H344   1.047       .  S
N342        H345   1.045       .  S
N342        H346   1.046       .  S
C347        C348   1.401       .  A
C347        C352   1.400       .  A
C347        H354   1.084       .  S
C348        C349   1.407       .  A
C349        C350   1.400       .  A
C349        N356   1.432       .  S
C350        C351   1.405       .  A
C350       H1051   1.084       .  S
C351        C836   1.479       .  S
C351        C352   1.412       .  A
C352        N353   1.432       .  S
N353        H357   1.046       .  S
N353        H358   1.045       .  S
H355       C1046   1.084       .  S
N356        H359   1.046       .  S
N356       H1056   1.046       .  S
H360       N1052   1.046       .  S
C361        C362   1.404       .  A
C361        C366   1.398       .  A
C361        H368   1.084       .  S
C362        C363   1.409       .  A
C363        C364   1.411       .  A
C363        N370   1.437       .  S
C364        C365   1.404       .  A
C364        H369   1.083       .  S
C365        C366   1.408       .  A
C366        N367   1.439       .  S
N367        H371   1.045       .  S
N367        H372   1.045       .  S
N370        H373   1.046       .  S
N370        H374   1.045       .  S
C375        C376   1.398       .  A
C375        C380   1.397       .  A
C375        H382   1.085       .  S
C376        C377   1.414       .  A
C377        C378   1.418       .  A
C377        N384   1.431       .  S
C378        C379   1.412       .  A
C378        H383   1.080       .  S
C379        C380   1.417       .  A
C380        N381   1.433       .  S
N381        H385   1.046       .  S
N381        H386   1.046       .  S
N384        H387   1.044       .  S
N384        H388   1.045       .  S
C389        C390   1.405       .  A
C389        C394   1.414       .  A
C389        H396   1.083       .  S
C390        C391   1.412       .  A
C391        C392   1.396       .  A
C391        N398   1.439       .  S
C392        C393   1.401       .  A
C392        H397   1.085       .  S
C393        C394   1.418       .  A
C394        N395   1.437       .  S
N395        H399   1.046       .  S
N395        H400   1.044       .  S
N398        H401   1.044       .  S
N398        H402   1.047       .  S
C403        C404   1.401       .  A
C403        C408   1.413       .  A
C403        H410   1.083       .  S
C404        C405   1.409       .  A
C405        C406   1.397       .  A
C405        N412   1.434       .  S
C406        C407   1.407       .  A
C406        H411   1.068       .  S
C407        C408   1.418       .  A
C408        N409   1.437       .  S
N409        H413   1.046       .  S
N409        H414   1.045       .  S
N412        H415   1.045       .  S
N412        H416   1.045       .  S
C417        C418   1.401       .  A
C417        C422   1.405       .  A
C417        H424   1.084       .  S
C418        C419   1.408       .  A
C419        C420   1.403       .  A
C419        N426   1.431       .  S
C420        C421   1.405       .  A
C420        H425   1.084       .  S
C421        C771   1.489       .  S
C421        C422   1.416       .  A
C422       N1119   1.432       .  S
N423       C1118   1.432       .  S
N423        H427   1.046       .  S
N423        H428   1.046       .  S
N426        H429   1.046       .  S
N426        H430   1.045       .  S
C431        C432   1.412       .  A
C431        C436   1.411       .  A
C431        H438   1.083       .  S
C432        C433   1.412       .  A
C433        C434   1.398       .  A
C433        N440   1.433       .  S
C434        C435   1.404       .  A
C434        H439   1.084       .  S
C435        C436   1.412       .  A
C436        N437   1.436       .  S
N437        H441   1.046       .  S
N437        H442   1.044       .  S
N440        H443   1.046       .  S
N440        H444   1.046       .  S
C445        C446   1.411       .  A
C445        C450   1.402       .  A
C445       H1148   1.083       .  S
C446        C758   1.495       .  S
C446        C447   1.419       .  A
C447        C448   1.406       .  A
C447        N454   1.438       .  S
C448        C449   1.400       .  A
C448        H453   1.083       .  S
C449        C450   1.409       .  A
C450        N451   1.431       .  S
N451        H456   1.045       .  S
N451       H1151   1.042       .  S
H452       C1141   1.083       .  S
N454        H457   1.046       .  S
N454        H458   1.045       .  S
H455       N1147   1.043       .  S
C459        C460   1.407       .  A
C459        C464   1.403       .  A
C459        H466   1.084       .  S
C460        C461   1.414       .  A
C461        C462   1.402       .  A
C461        N468   1.432       .  S
C462        C463   1.400       .  A
C462        H467   1.082       .  S
C463        C464   1.414       .  A
C464        N465   1.438       .  S
N465        H469   1.045       .  S
N465        H470   1.044       .  S
N468        H471   1.046       .  S
N468        H472   1.046       .  S
C473        C474   1.400       .  A
C473        C478   1.412       .  A
C473        H480   1.083       .  S
C474        C475   1.409       .  A
C475        C476   1.404       .  A
C475        N482   1.438       .  S
C476        C477   1.404       .  A
C476        H481   1.084       .  S
C477        C478   1.418       .  A
C478        N479   1.437       .  S
N479        H483   1.046       .  S
N479        H484   1.046       .  S
N482        H485   1.046       .  S
N482        H486   1.045       .  S
C487        C488   1.409       .  A
C487        C492   1.401       .  A
C487       H1190   1.084       .  S
C488        C760   1.490       .  S
C488        C489   1.414       .  A
C489        C490   1.405       .  A
C489        N496   1.432       .  S
C490        C491   1.401       .  A
C490        H495   1.084       .  S
C491        C492   1.409       .  A
C492        N493   1.432       .  S
N493        H497   1.045       .  S
N493        H498   1.046       .  S
H494       C1183   1.084       .  S
N496        H499   1.046       .  S
N496        H500   1.046       .  S
C501        C502   1.404       .  A
C501        C506   1.405       .  A
C501        H508   1.084       .  S
C502        C503   1.405       .  A
C503        C504   1.409       .  A
C503        N510   1.437       .  S
C504        C505   1.408       .  A
C504        H509   1.078       .  S
C505        C506   1.412       .  A
C506        N507   1.438       .  S
N507        H511   1.047       .  S
N507        H512   1.045       .  S
N510        H513   1.046       .  S
N510        H514   1.045       .  S
C515        C516   1.404       .  A
C515        C520   1.402       .  A
C515        H522   1.084       .  S
C516        C517   1.412       .  A
C517        C518   1.414       .  A
C517        N524   1.437       .  S
C518        C519   1.414       .  A
C518        H523   1.083       .  S
C519        C520   1.417       .  A
C520        N521   1.438       .  S
N521        H525   1.046       .  S
N521        H526   1.046       .  S
N524        H527   1.044       .  S
N524        H528   1.046       .  S
C529        C530   1.403       .  A
C529        C534   1.412       .  A
C529        H536   1.083       .  S
C530        C531   1.407       .  A
C531        C532   1.400       .  A
C531        N538   1.433       .  S
C532        C533   1.408       .  A
C532        H537   1.083       .  S
C533        C534   1.418       .  A
C534        N535   1.437       .  S
N535        H539   1.046       .  S
N535        H540   1.046       .  S
N538        H541   1.046       .  S
N538        H542   1.045       .  S
C543        C544   1.405       .  A
C543        C548   1.399       .  A
C543        H550   1.085       .  S
C544        C545   1.416       .  A
C545        C546   1.412       .  A
C545        N552   1.437       .  S
C546        C547   1.407       .  A
C546        H551   1.084       .  S
C547        C548   1.417       .  A
C548        N549   1.441       .  S
N549        H553   1.046       .  S
N549        H554   1.043       .  S
N552        H555   1.044       .  S
N552        H556   1.046       .  S
C557        C558   1.405       .  A
C557        C562   1.404       .  A
C557        H564   1.082       .  S
C558        C559   1.417       .  A
C559        C560   1.400       .  A
C559        N566   1.433       .  S
C560        C561   1.404       .  A
C560        H565   1.084       .  S
C561        C562   1.409       .  A
C562        N563   1.432       .  S
N563        H567   1.046       .  S
N563        H568   1.046       .  S
N566        H569   1.046       .  S
N566        H570   1.040       .  S
C571        C572   1.399       .  A
C571        C576   1.409       .  A
C571        H578   1.083       .  S
C572        C573   1.410       .  A
C573        C574   1.399       .  A
C573        N580   1.432       .  S
C574        C575   1.407       .  A
C574        H579   1.083       .  S
C575        C773   1.495       .  S
C575        C576   1.421       .  A
C576       N1273   1.437       .  S
N577       C1272   1.437       .  S
N577        H581   1.046       .  S
N577        H582   1.046       .  S
N580        H583   1.043       .  S
N580        H584   1.045       .  S
C585        C586   1.408       .  A
C585        C590   1.407       .  A
C585        H592   1.084       .  S
C586        C587   1.412       .  A
C587        C588   1.399       .  A
C587        N594   1.433       .  S
C588        C589   1.402       .  A
C588        H593   1.085       .  S
C589        C590   1.414       .  A
C590        N591   1.437       .  S
N591        H595   1.045       .  S
N591        H596   1.044       .  S
N594        H597   1.045       .  S
N594        H598   1.046       .  S
C599        C600   1.399       .  A
C599        C604   1.403       .  A
C599        H606   1.084       .  S
C600        C601   1.414       .  A
C601        C602   1.414       .  A
C601        N608   1.437       .  S
C602        C603   1.412       .  A
C602        H607   1.083       .  S
C603        C604   1.420       .  A
C604        N605   1.438       .  S
N605        H609   1.046       .  S
N605        H610   1.045       .  S
N608        H611   1.045       .  S
N608        H612   1.045       .  S
C613        C614   1.406       .  A
C613        C618   1.398       .  A
C613        H620   1.084       .  S
C614        C615   1.412       .  A
C615        C616   1.406       .  A
C615        N622   1.432       .  S
C616        C617   1.402       .  A
C616        H621   1.084       .  S
C617        C618   1.410       .  A
C618        N619   1.432       .  S
N619        H623   1.044       .  S
N619        H624   1.045       .  S
N622        H625   1.045       .  S
N622        H626   1.046       .  S
C627        C628   1.403       .  A
C627        C632   1.401       .  A
C627        H634   1.084       .  S
C628        C629   1.413       .  A
C629        C630   1.409       .  A
C629        N636   1.431       .  S
C630        C631   1.408       .  A
C630        H635   1.084       .  S
C631        C632   1.412       .  A
C632        N633   1.437       .  S
N633        H637   1.046       .  S
N633        H638   1.045       .  S
N636        H639   1.046       .  S
N636        H640   1.044       .  S
C641        C642   1.409       .  A
C641        C646   1.407       .  A
C641        H648   1.083       .  S
C642        C643   1.419       .  A
C643        C644   1.408       .  A
C643        N650   1.438       .  S
C644        C645   1.401       .  A
C644        H649   1.084       .  S
C645        C646   1.407       .  A
C646        N647   1.437       .  S
N647        H651   1.046       .  S
N647        H652   1.045       .  S
N650        H653   1.045       .  S
N650        H654   1.046       .  S
C655        C656   1.406       .  A
C655        C660   1.400       .  A
C655        H662   1.083       .  S
C656        C657   1.424       .  A
C657        C658   1.406       .  A
C657        N664   1.432       .  S
C658        C659   1.400       .  A
C658        H663   1.083       .  S
C659        C660   1.406       .  A
C660        N661   1.436       .  S
N661        H665   1.045       .  S
N661        H666   1.044       .  S
N664        H667   1.045       .  S
N664        H668   1.045       .  S
C669        C670   1.402       .  A
C669        C674   1.416       .  A
C669        H676   1.083       .  S
C670        C671   1.406       .  A
C671        C672   1.402       .  A
C671        N678   1.432       .  S
C672        C673   1.407       .  A
C672        H677   1.083       .  S
C673        C674   1.419       .  A
C674        N675   1.431       .  S
N675        H679   1.045       .  S
N675        H680   1.046       .  S
N678        H681   1.046       .  S
N678        H682   1.045       .  S
C683        C684   1.398       .  A
C683        C688   1.403       .  A
C683        H690   1.084       .  S
C684        C685   1.407       .  A
C685        C686   1.403       .  A
C685        N692   1.438       .  S
C686        C687   1.405       .  A
C686        H691   1.083       .  S
C687        C688   1.417       .  A
C688        N689   1.438       .  S
N689        H693   1.046       .  S
N689        H694   1.046       .  S
N692        H695   1.046       .  S
N692        H696   1.045       .  S
O697        V705   1.909       .  S
O697        C707   1.268       .  A
O698        V705   1.919       .  S
O698        C708   1.268       .  A
O699        V705   1.900       .  S
O699        C709   1.266       .  A
O700        V705   1.911       .  S
O700        C710   1.266       .  A
O701        V706   1.895       .  S
O701        C710   1.265       .  A
O702        V706   1.891       .  S
O702        C709   1.262       .  A
O703        V706   1.904       .  S
O703        C708   1.267       .  A
O704        V706   1.903       .  S
O704        C707   1.265       .  A
V705        V706   2.082       .  T
C707       C1338   1.497       .  S
C708       C1369   1.502       .  S
C709       C1383   1.486       .  S
C710       C1352   1.496       .  S
N711        C715   1.358       .  A
N711        C712   1.364       .  A
N711       C1296   1.445       .  S
C712       C1324   1.480       .  S
C712        C713   1.385       .  A
C713        C714   1.365       .  A
C713        H716   1.083       .  S
C714        C715   1.376       .  A
C714        H717   1.082       .  S
C715       C1313   1.474       .  S
N718        C722   1.360       .  A
N718        C719   1.355       .  A
N718       C1268   1.444       .  S
C719       C1285   1.475       .  S
C719        C720   1.381       .  A
C720        C721   1.372       .  A
C720        H723   1.083       .  S
C721        C722   1.384       .  A
C721        H724   1.081       .  S
C722       C1254   1.484       .  S
N725        C729   1.360       .  A
N725        C726   1.364       .  A
N725       C1212   1.447       .  S
C726       C1240   1.482       .  S
C726        C727   1.386       .  A
C727        C728   1.364       .  A
C727        H730   1.083       .  S
C728        C729   1.378       .  A
C728        H731   1.082       .  S
C729       C1226   1.483       .  S
N732        C733   1.362       .  A
N732       C1366   1.446       .  S
C733       C1198   1.485       .  S
C734        C735   1.368       .  A
C734        H737   1.083       .  S
C735        C736   1.378       .  A
C735        H738   1.082       .  S
C736       C1380   1.473       .  S
C739       C1327   1.495       .  S
C739        C740   1.424       .  A
C739        C744   1.411   1_565  A
C740       C1282   1.498       .  S
C740        C741   1.405       .  A
C741        C742   1.402   1_565  A
C741        H746   1.084       .  S
C742       C1243   1.488       .  S
C742        C743   1.413       .  A
C743       C1201   1.485       .  S
C743        C744   1.406       .  A
C744        H745   1.084       .  S
O747        V755   1.901       .  S
O747        C757   1.266       .  A
O748        V755   1.904       .  S
O748        C758   1.266       .  A
O749        V755   1.900       .  S
O749        C759   1.265       .  A
O750        V755   1.899       .  S
O750        C760   1.265       .  A
O751        V756   1.907       .  S
O751        C760   1.267       .  A
O752        V756   1.905       .  S
O752        C759   1.266       .  A
O753        V756   1.904       .  S
O753        C758   1.266       .  A
O754        V756   1.906       .  S
O754        C757   1.265       .  A
V755        V756   2.081       .  T
C757       C1173   1.489       .  S
C759       C1156   1.490       .  S
O761        V769   1.897       .  S
O761        C771   1.264       .  A
O762        V769   1.897       .  S
O762        C772   1.264       .  A
O763        V769   1.901       .  S
O763        C773   1.264       .  A
O764        V769   1.896       .  S
O764        C774   1.265       .  A
O765        V770   1.913       .  S
O765        C774   1.267       .  A
O766        V770   1.908       .  S
O766        C773   1.268       .  A
O767        V770   1.902       .  S
O767        C772   1.265       .  A
O768        V770   1.903       .  S
O768        C771   1.266       .  A
V769        V770   2.083       .  T
C772       C1257   1.481       .  S
C774       C1128   1.496       .  S
N775        C779   1.353       .  A
N775        C776   1.355       .  A
N775       C1170   1.437       .  S
C776       C1100   1.477       .  S
C776        C777   1.384       .  A
C777        C778   1.374       .  A
C777        H780   1.083       .  S
C778        C779   1.379       .  A
C778        H781   1.082       .  S
C779       C1187   1.473       .  S
N782        C786   1.364       .  A
N782        C783   1.364       .  A
N782       C1131   1.450       .  S
C783       C1086   1.491       .  S
C783        C784   1.389       .  A
C784        C785   1.368       .  A
C784        H787   1.083       .  S
C785        C786   1.376       .  A
C785        H788   1.082       .  S
C786       C1114   1.488       .  S
N789        C790   1.366       .  A
N789       C1355   1.439       .  S
C790       C1075   1.505       .  S
C791        C792   1.369       .  A
C791        H794   1.081       .  S
C792        C793   1.376       .  A
C792        H795   1.082       .  S
C793       C1341   1.488       .  S
N796        C800   1.362       .  A
N796        C797   1.363       .  A
N796       C1030   1.445       .  S
C797       C1058   1.487       .  S
C797        C798   1.386       .  A
C798        C799   1.366       .  A
C798        H801   1.083       .  S
C799        C800   1.379       .  A
C799        H802   1.082       .  S
C800       C1044   1.481       .  S
C803       C1089   1.490       .  S
C803        C804   1.422       .  A
C803        C808   1.408   1_455  A
C804       C1103   1.499       .  S
C804        C805   1.411   1_455  A
C805        C806   1.406       .  A
C805        H810   1.085       .  S
C806       C1072   1.498       .  S
C806        C807   1.419       .  A
C807       C1061   1.487       .  S
C807        C808   1.407       .  A
C808        H809   1.085       .  S
O811        V819   1.907       .  S
O811        C821   1.267       .  A
O812        C822   1.269       .  A
O813        V819   1.903       .  S
O813        C823   1.265       .  A
O814        C824   1.268       .  A
O815        C824   1.266       .  A
O816        V820   1.899       .  S
O816        C823   1.265       .  A
O817        C822   1.265       .  A
O818        V820   1.891       .  S
O818        C821   1.263       .  A
V819        V820   2.082       .  T
C821       C1229   1.489       .  S
C822       C1016   1.502   1_554  S
C823       C1002   1.492       .  S
C824       C1215   1.504   1_554  S
O825        V833   1.902       .  S
O825        C835   1.265       .  A
O826        V833   1.898       .  S
O826        C836   1.264       .  A
O827        V833   1.912       .  S
O827        C837   1.269       .  A
O828        V833   1.914       .  S
O828        C838   1.266       .  A
O829        V834   1.904       .  S
O829        C838   1.266       .  A
O830        V834   1.905       .  S
O830        C837   1.265       .  A
O831        V834   1.895       .  S
O831        C836   1.264       .  A
O832        V834   1.894       .  S
O832        C835   1.263       .  A
V833        V834   2.083       .  T
C835        C988   1.476       .  S
C837       C1033   1.500       .  S
O839        C849   1.267       .  A
O840        V847   1.901       .  S
O840        C850   1.264       .  A
O841        C851   1.270       .  A
O842        V847   1.913       .  S
O842        C852   1.268       .  A
O843        V848   1.890       .  S
O843        C852   1.263       .  A
O844        C851   1.264       .  A
O845        V848   1.897       .  S
O845        C850   1.265       .  A
O846        C849   1.267       .  A
V847        V848   2.082       .  T
C849        C960   1.502       .  S
C850       C1310   1.484       .  S
C851       C1299   1.503       .  S
C852        C949   1.492       .  S
N853        C857   1.357       .  A
N853        C854   1.357       .  A
N853       C1145   1.439       .  S
C854        C935   1.480       .  S
C854        C855   1.384       .  A
C855        C856   1.373       .  A
C855        H858   1.082       .  S
C856        C857   1.381       .  A
C856        H859   1.082       .  S
C857       C1159   1.480       .  S
N860        C864   1.360       .  A
N860        C861   1.364       .  A
N860        C963   1.443       .  S
C861        C918   1.493       .  S
C861        C862   1.389       .  A
C862        C863   1.365       .  A
C862        H865   1.083       .  S
C863        C864   1.377       .  A
C863        H866   1.082       .  S
C864        C946   1.479       .  S
N867        C871   1.361       .  A
N867        C868   1.363       .  A
N867       C1019   1.444       .  S
C868        C907   1.487       .  S
C868        C869   1.385       .  A
C869        C870   1.369       .  A
C869        H872   1.083       .  S
C870        C871   1.378       .  A
C870        H873   1.082       .  S
C871       C1005   1.481       .  S
N874        C878   1.357       .  A
N874        C875   1.361       .  A
N874        C977   1.448       .  S
C875        C890   1.490       .  S
C875        C876   1.386       .  A
C876        C877   1.369       .  A
C876        H879   1.082       .  S
C877        C878   1.377       .  A
C877        H880   1.082       .  S
C878        C991   1.481       .  S
C881        C921   1.498       .  S
C881        C882   1.422       .  A
C881        C886   1.401       .  A
C882        C932   1.504       .  S
C882        C883   1.412       .  A
C883        C884   1.414       .  A
C883        H888   1.083       .  S
C884        C904   1.508       .  S
C884        C885   1.426       .  A
C885        C893   1.488       .  S
C885        C886   1.407       .  A
C886        H887   1.085       .  S
C889        C890   1.408       .  A
C889        C894   1.419       .  A
C889        H896   1.083   1_556  S
C890        C891   1.421       .  A
C891        C892   1.388       .  A
C891        N898   1.434       .  S
C892        C893   1.398       .  A
C892        H897   1.085       .  S
C893        C894   1.412       .  A
C894        N895   1.436   1_556  S
N895        H899   1.046       .  S
N895        H900   1.046       .  S
N898        H901   1.044       .  S
N898        H902   1.042       .  S
C903        C904   1.405       .  A
C903        C908   1.396       .  A
C903        H910   1.074       .  S
C904        C905   1.419       .  A
C905        C906   1.418       .  A
C905        N912   1.436   1_556  S
C906        C907   1.404       .  A
C906        H911   1.083       .  S
C907        C908   1.413       .  A
C908        N909   1.435       .  S
N909        H913   1.043       .  S
N909        H914   1.045       .  S
N912        H915   1.045       .  S
N912        H916   1.046       .  S
C917        C918   1.404       .  A
C917        C922   1.396       .  A
C917        H924   1.084       .  S
C918        C919   1.414       .  A
C919        C920   1.418       .  A
C919        N926   1.435       .  S
C920        C921   1.410       .  A
C920        H925   1.083       .  S
C921        C922   1.411       .  A
C922        N923   1.438       .  S
N923        H927   1.045       .  S
N923        H928   1.046       .  S
N926        H929   1.046       .  S
N926        H930   1.045       .  S
C931        C932   1.407       .  A
C931        C936   1.398       .  A
C931        H938   1.083       .  S
C932        C933   1.421       .  A
C933        C934   1.408       .  A
C933        N940   1.437       .  S
C934        C935   1.401       .  A
C934        H939   1.084       .  S
C935        C936   1.414       .  A
C936        N937   1.438       .  S
N937        H941   1.045       .  S
N937        H942   1.044       .  S
N940        H943   1.044   1_556  S
N940        H944   1.046   1_556  S
C945        C946   1.402       .  A
C945        C950   1.410       .  A
C945        H952   1.084       .  S
C946        C947   1.414       .  A
C947        C948   1.399       .  A
C947        N954   1.440       .  S
C948        C949   1.408       .  A
C948        H953   1.084       .  S
C949        C950   1.417       .  A
C950        N951   1.437       .  S
N951        H955   1.046       .  S
N951        H956   1.046       .  S
N954        H957   1.043       .  S
N954        H958   1.046       .  S
C959        C960   1.408       .  A
C959        C964   1.401       .  A
C959        H966   1.083       .  S
C960        C961   1.426       .  A
C961        C962   1.410       .  A
C961        N968   1.431       .  S
C962        C963   1.400       .  A
C962        H967   1.083       .  S
C963        C964   1.405       .  A
C964        N965   1.432       .  S
N965        H969   1.045       .  S
N965        H970   1.046       .  S
N968        H971   1.045       .  S
N968        H972   1.045       .  S
C973        C974   1.401       .  A
C973        C978   1.401       .  A
C973        H980   1.084       .  S
C974        C975   1.417       .  A
C975        C976   1.408   1_554  A
C976        C977   1.406       .  A
C976        H981   1.083       .  S
C977        C978   1.415   1_556  A
C978        N979   1.432       .  S
N979        H983   1.046       .  S
N979        H984   1.045       .  S
N982        H985   1.045       .  S
N982        H986   1.046       .  S
C987        C988   1.399       .  A
C987        C992   1.400       .  A
C987        H994   1.084       .  S
C988        C989   1.411       .  A
C989        C990   1.406       .  A
C989        N996   1.438       .  S
C990        C991   1.403       .  A
C990        H995   1.084       .  S
C991        C992   1.422       .  A
C992        N993   1.438       .  S
N993        H997   1.046       .  S
N993        H998   1.038       .  S
N996        H999   1.046       .  S
N996       H1000   1.046       .  S
C1001      C1002   1.408       .  A
C1001      C1006   1.399       .  A
C1001      H1008   1.084       .  S
C1002      C1003   1.418       .  A
C1003      C1004   1.409       .  A
C1003      N1010   1.438       .  S
C1004      C1005   1.401       .  A
C1004      H1009   1.083       .  S
C1005      C1006   1.411       .  A
C1006      N1007   1.433       .  S
N1007      H1011   1.044       .  S
N1007      H1012   1.044       .  S
N1010      H1013   1.045       .  S
N1010      H1014   1.046       .  S
C1015      C1016   1.413       .  A
C1015      C1020   1.410       .  A
C1015      H1022   1.083       .  S
C1016      C1017   1.420       .  A
C1017      C1018   1.405       .  A
C1017      N1024   1.438       .  S
C1018      C1019   1.400       .  A
C1018      H1023   1.082       .  S
C1019      C1020   1.409       .  A
C1020      N1021   1.430       .  S
N1021      H1025   1.044       .  S
N1021      H1026   1.045       .  S
N1024      H1027   1.046       .  S
N1024      H1028   1.046       .  S
C1029      C1030   1.400       .  A
C1029      C1034   1.413       .  A
C1029      H1036   1.083       .  S
C1030      C1031   1.406       .  A
C1031      C1032   1.404       .  A
C1031      N1038   1.432       .  S
C1032      C1033   1.408       .  A
C1032      H1037   1.083       .  S
C1033      C1034   1.423       .  A
C1034      N1035   1.437       .  S
N1035      H1039   1.044       .  S
N1035      H1040   1.047       .  S
N1038      H1041   1.046       .  S
N1038      H1042   1.045       .  S
C1043      C1044   1.403       .  A
C1043      C1048   1.403   1_556  A
C1043      H1050   1.084       .  S
C1044      C1045   1.408       .  A
C1045      C1046   1.403       .  A
C1045      N1052   1.431       .  S
C1046      C1047   1.405   1_556  A
C1047      C1048   1.413       .  A
C1048      N1049   1.432       .  S
N1049      H1053   1.046       .  S
N1049      H1054   1.046       .  S
N1052      H1055   1.045       .  S
C1057      C1058   1.406       .  A
C1057      C1062   1.399       .  A
C1057      H1064   1.084       .  S
C1058      C1059   1.412       .  A
C1059      C1060   1.414       .  A
C1059      N1066   1.436       .  S
C1060      C1061   1.405       .  A
C1060      H1065   1.083       .  S
C1061      C1062   1.407       .  A
C1062      N1063   1.439       .  S
N1063      H1067   1.045       .  S
N1063      H1068   1.045       .  S
N1066      H1069   1.046       .  S
N1066      H1070   1.046       .  S
C1071      C1072   1.399       .  A
C1071      C1076   1.397       .  A
C1071      H1078   1.084       .  S
C1072      C1073   1.412       .  A
C1073      C1074   1.415       .  A
C1073      N1080   1.431       .  S
C1074      C1075   1.411       .  A
C1074      H1079   1.078       .  S
C1075      C1076   1.416       .  A
C1076      N1077   1.433       .  S
N1077      H1081   1.046       .  S
N1077      H1082   1.046       .  S
N1080      H1083   1.044       .  S
N1080      H1084   1.045       .  S
C1085      C1086   1.406       .  A
C1085      C1090   1.415       .  A
C1085      H1092   1.083       .  S
C1086      C1087   1.414       .  A
C1087      C1088   1.398       .  A
C1087      N1094   1.439       .  S
C1088      C1089   1.401       .  A
C1088      H1093   1.085       .  S
C1089      C1090   1.417       .  A
C1090      N1091   1.436       .  S
N1091      H1095   1.046       .  S
N1091      H1096   1.044       .  S
N1094      H1097   1.045       .  S
N1094      H1098   1.046       .  S
C1099      C1100   1.400       .  A
C1099      C1104   1.411       .  A
C1099      H1106   1.083       .  S
C1100      C1101   1.410       .  A
C1101      C1102   1.397       .  A
C1101      N1108   1.434       .  S
C1102      C1103   1.405       .  A
C1102      H1107   1.073       .  S
C1103      C1104   1.416       .  A
C1104      N1105   1.437       .  S
N1105      H1109   1.045       .  S
N1105      H1110   1.046       .  S
N1108      H1111   1.046       .  S
N1108      H1112   1.045       .  S
C1113      C1114   1.405       .  A
C1113      C1118   1.408       .  A
C1113      H1120   1.084       .  S
C1114      C1115   1.407       .  A
C1115      C1116   1.401       .  A
C1115      N1122   1.429       .  S
C1116      C1117   1.405       .  A
C1116      H1121   1.084       .  S
C1117      C1118   1.415       .  A
N1119      H1123   1.046       .  S
N1119      H1124   1.045       .  S
N1122      H1125   1.045       .  S
N1122      H1126   1.046       .  S
C1127      C1128   1.412       .  A
C1127      C1132   1.410       .  A
C1127      H1134   1.083       .  S
C1128      C1129   1.414       .  A
C1129      C1130   1.399       .  A
C1129      N1136   1.433       .  S
C1130      C1131   1.406       .  A
C1130      H1135   1.084       .  S
C1131      C1132   1.413       .  A
C1132      N1133   1.431       .  S
N1133      H1137   1.044       .  S
N1133      H1138   1.040       .  S
N1136      H1139   1.046       .  S
N1136      H1140   1.046       .  S
C1141      C1142   1.410       .  A
C1141      C1146   1.404       .  A
C1142      C1143   1.415       .  A
C1143      C1144   1.400       .  A
C1143      N1150   1.432       .  S
C1144      C1145   1.399       .  A
C1144      H1149   1.083       .  S
C1145      C1146   1.410       .  A
C1146      N1147   1.431       .  S
N1147      H1152   1.045       .  S
N1150      H1153   1.046       .  S
N1150      H1154   1.046       .  S
C1155      C1156   1.407       .  A
C1155      C1160   1.401       .  A
C1155      H1162   1.083       .  S
C1156      C1157   1.415       .  A
C1157      C1158   1.404       .  A
C1157      N1164   1.432       .  S
C1158      C1159   1.400       .  A
C1158      H1163   1.083       .  S
C1159      C1160   1.411       .  A
C1160      N1161   1.433       .  S
N1161      H1165   1.044       .  S
N1161      H1166   1.045       .  S
N1164      H1167   1.046       .  S
N1164      H1168   1.046       .  S
C1169      C1170   1.400       .  A
C1169      C1174   1.411       .  A
C1169      H1176   1.083       .  S
C1170      C1171   1.408       .  A
C1171      C1172   1.404       .  A
C1171      N1178   1.438       .  S
C1172      C1173   1.405       .  A
C1172      H1177   1.084       .  S
C1173      C1174   1.418       .  A
C1174      N1175   1.437       .  S
N1175      H1179   1.046       .  S
N1175      H1180   1.045       .  S
N1178      H1181   1.046       .  S
N1178      H1182   1.045       .  S
C1183      C1184   1.409       .  A
C1183      C1188   1.401       .  A
C1184      C1185   1.417       .  A
C1185      C1186   1.404       .  A
C1185      N1192   1.438       .  S
C1186      C1187   1.398       .  A
C1186      H1191   1.084       .  S
C1187      C1188   1.407       .  A
C1188      N1189   1.432       .  S
N1189      H1193   1.045       .  S
N1189      H1194   1.045       .  S
N1192      H1195   1.045       .  S
N1192      H1196   1.046       .  S
C1197      C1198   1.407       .  A
C1197      C1202   1.401       .  A
C1197      H1204   1.084   1_556  S
C1198      C1199   1.408       .  A
C1199      C1200   1.413       .  A
C1199      N1206   1.436       .  S
C1200      C1201   1.407       .  A
C1200      H1205   1.080       .  S
C1201      C1202   1.406       .  A
C1202      N1203   1.439   1_556  S
N1203      H1207   1.047       .  S
N1203      H1208   1.045       .  S
N1206      H1209   1.045       .  S
N1206      H1210   1.045       .  S
C1211      C1212   1.402       .  A
C1211      C1216   1.402       .  A
C1211      H1218   1.084       .  S
C1212      C1213   1.413       .  A
C1213      C1214   1.415       .  A
C1213      N1220   1.437       .  S
C1214      C1215   1.415       .  A
C1214      H1219   1.083       .  S
C1215      C1216   1.419       .  A
C1216      N1217   1.438       .  S
N1217      H1221   1.045       .  S
N1217      H1222   1.046       .  S
N1220      H1223   1.044       .  S
N1220      H1224   1.046       .  S
C1225      C1226   1.403       .  A
C1225      C1230   1.409       .  A
C1225      H1232   1.082       .  S
C1226      C1227   1.406       .  A
C1227      C1228   1.399       .  A
C1227      N1234   1.433       .  S
C1228      C1229   1.407       .  A
C1228      H1233   1.083       .  S
C1229      C1230   1.417       .  A
C1230      N1231   1.437       .  S
N1231      H1235   1.046       .  S
N1231      H1236   1.046       .  S
N1234      H1237   1.046       .  S
N1234      H1238   1.045       .  S
C1239      C1240   1.404       .  A
C1239      C1244   1.401       .  A
C1239      H1246   1.085       .  S
C1240      C1241   1.414       .  A
C1241      C1242   1.407       .  A
C1241      N1248   1.437       .  S
C1242      C1243   1.405       .  A
C1242      H1247   1.084       .  S
C1243      C1244   1.419       .  A
C1244      N1245   1.441       .  S
N1245      H1249   1.046       .  S
N1245      H1250   1.042       .  S
N1248      H1251   1.044       .  S
N1248      H1252   1.046   1_556  S
C1253      C1254   1.404       .  A
C1253      C1258   1.403       .  A
C1253      H1260   1.083       .  S
C1254      C1255   1.417       .  A
C1255      C1256   1.399       .  A
C1255      N1262   1.434       .  S
C1256      C1257   1.403       .  A
C1256      H1261   1.084       .  S
C1257      C1258   1.410       .  A
C1258      N1259   1.432       .  S
N1259      H1263   1.046       .  S
N1259      H1264   1.046       .  S
N1262      H1265   1.043       .  S
N1262      H1266   1.043       .  S
C1267      C1268   1.402       .  A
C1267      C1272   1.413       .  A
C1267      H1274   1.083       .  S
C1268      C1269   1.411       .  A
C1269      C1270   1.397       .  A
C1269      N1276   1.431       .  S
C1270      C1271   1.406       .  A
C1270      H1275   1.083       .  S
C1271      C1272   1.420       .  A
N1273      H1277   1.046       .  S
N1273      H1278   1.046       .  S
N1276      H1279   1.046       .  S
N1276      H1280   1.041       .  S
C1281      C1282   1.409       .  A
C1281      C1286   1.405       .  A
C1281      H1288   1.084       .  S
C1282      C1283   1.413       .  A
C1283      C1284   1.400       .  A
C1283      N1290   1.433       .  S
C1284      C1285   1.401       .  A
C1284      H1289   1.085       .  S
C1285      C1286   1.412       .  A
C1286      N1287   1.437       .  S
N1287      H1291   1.046       .  S
N1287      H1292   1.044       .  S
N1290      H1293   1.046       .  S
N1290      H1294   1.046       .  S
C1295      C1296   1.398       .  A
C1295      C1300   1.402       .  A
C1295      H1302   1.084       .  S
C1296      C1297   1.415       .  A
C1297      C1298   1.416       .  A
C1297      N1304   1.437       .  S
C1298      C1299   1.412       .  A
C1298      H1303   1.083       .  S
C1299      C1300   1.421       .  A
C1300      N1301   1.438       .  S
N1301      H1305   1.046       .  S
N1301      H1306   1.045       .  S
N1304      H1307   1.047       .  S
N1304      H1308   1.043       .  S
C1309      C1310   1.406       .  A
C1309      C1314   1.397       .  A
C1309      H1316   1.084       .  S
C1310      C1311   1.414       .  A
C1311      C1312   1.405       .  A
C1311      N1318   1.432       .  S
C1312      C1313   1.401       .  A
C1312      H1317   1.084       .  S
C1313      C1314   1.409       .  A
C1314      N1315   1.433       .  S
N1315      H1319   1.045       .  S
N1315      H1320   1.044       .  S
N1318      H1321   1.045       .  S
N1318      H1322   1.046       .  S
C1323      C1324   1.403       .  A
C1323      C1328   1.401       .  A
C1323      H1330   1.084       .  S
C1324      C1325   1.412       .  A
C1325      C1326   1.406       .  A
C1325      N1332   1.431       .  S
C1326      C1327   1.407       .  A
C1326      H1331   1.084       .  S
C1327      C1328   1.413       .  A
C1328      N1329   1.438       .  S
N1329      H1333   1.046       .  S
N1329      H1334   1.045       .  S
N1332      H1335   1.046       .  S
N1332      H1336   1.044       .  S
C1337      C1338   1.409       .  A
C1337      C1342   1.410       .  A
C1337      H1344   1.083       .  S
C1338      C1339   1.418       .  A
C1339      C1340   1.407       .  A
C1339      N1346   1.438       .  S
C1340      C1341   1.402       .  A
C1340      H1345   1.084       .  S
C1341      C1342   1.409       .  A
C1342      N1343   1.437       .  S
N1343      H1347   1.046       .  S
N1343      H1348   1.045       .  S
N1346      H1349   1.045       .  S
N1346      H1350   1.046       .  S
C1351      C1352   1.408       .  A
C1351      C1356   1.400       .  A
C1351      H1358   1.083       .  S
C1352      C1353   1.424       .  A
C1353      C1354   1.407       .  A
C1353      N1360   1.431       .  S
C1354      C1355   1.400       .  A
C1354      H1359   1.083       .  S
C1355      C1356   1.405       .  A
C1356      N1357   1.435       .  S
N1357      H1361   1.046       .  S
N1357      H1362   1.043       .  S
N1360      H1363   1.045       .  S
N1360      H1364   1.045       .  S
C1365      C1366   1.403       .  A
C1365      C1370   1.417       .  A
C1365      H1372   1.083       .  S
C1366      C1367   1.407       .  A
C1367      C1368   1.402       .  A
C1367      N1374   1.432       .  S
C1368      C1369   1.407       .  A
C1368      H1373   1.083       .  S
C1369      C1370   1.418       .  A
C1370      N1371   1.431       .  S
N1371      H1375   1.045       .  S
N1371      H1376   1.046       .  S
N1374      H1377   1.046       .  S
N1374      H1378   1.045       .  S
C1379      C1380   1.399       .  A
C1379      C1384   1.404       .  A
C1379      H1386   1.084       .  S
C1380      C1381   1.408       .  A
C1381      C1382   1.403       .  A
C1381      N1388   1.438       .  S
C1382      C1383   1.406       .  A
C1382      H1387   1.083       .  S
C1383      C1384   1.418       .  A
C1384      N1385   1.438       .  S
N1385      H1389   1.046       .  S
N1385      H1390   1.045       .  S
N1388      H1391   1.046       .  S
N1388      H1392   1.045       .  S
