geometry optimzed in LAMMPS
_audit_creation_date              2020-11-30 
_audit_creation_method            'lammps2cif' 
_symmetry_space_group_name_H-M    'P1' 
_symmetry_Int_Tables_number       1 
_symmetry_cell_setting            triclinic 
loop_ 
_symmetry_equiv_pos_as_xyz 
  x,y,z 
_cell_length_a                    50.70407551 
_cell_length_b                    48.51513687038382 
_cell_length_c                    49.8378787026397 
_cell_angle_alpha                 91.85136855934923 
_cell_angle_beta                  89.94897565399131 
_cell_angle_gamma                 90.03863619241562 
loop_ 
_atom_site_label 
_atom_site_type_symbol 
_atom_site_fract_x 
_atom_site_fract_y 
_atom_site_fract_z 
_atom_site_charge 
O1          O  0.22787598  0.71257840  0.74377257    -0.79600
O2          O  0.23553631  0.78207041  0.77348128    -0.79600
O3          O  0.27840613  0.70403734  0.80298867    -0.79600
O4          O  0.25310868  0.77427666  0.68814142    -0.79600
O5          O  0.24551875  0.73309028  0.80181021    -0.79700
O6          O  0.23281140  0.73330770  0.68790092    -0.79600
O7          O  0.23099552  0.76306753  0.73381222    -0.79600
O8          O  0.25727524  0.68214370  0.75752263    -0.79700
C9          C  0.23333378  0.69019355  0.75535212     1.10100
C10         C  0.22312585  0.78001208  0.75148810     1.10000
C11         C  0.25641129  0.71249183  0.81211842     1.10100
C12         C  0.23605351  0.75736921  0.67753361     1.10000
O13         O  0.28490047  0.73161192  0.69235477    -0.79600
O14         O  0.30099008  0.74957418  0.80470098    -0.79700
O15         O  0.30538930  0.69322423  0.72854403    -0.79600
O16         O  0.27283991  0.80189997  0.73619589    -0.79600
O17         O  0.29051562  0.79266639  0.77503115    -0.79700
O18         O  0.26659051  0.68870378  0.70953796    -0.79600
O19         O  0.30562056  0.76521638  0.71021798    -0.79600
O20         O  0.32388979  0.72216437  0.77610972    -0.79700
Co21       Co  0.25579666  0.72723631  0.71990764     1.51500
Co22       Co  0.26808962  0.76241215  0.78654054     1.51700
Co23       Co  0.29106152  0.70251586  0.76488666     1.51600
Co24       Co  0.26831872  0.76280202  0.72259743     1.51500
O25         O  0.27730328  0.73915700  0.75313763    -1.41500
C26         C  0.30493660  0.74669377  0.69241042     1.10000
C27         C  0.32265386  0.73865473  0.79659761     1.10100
C28         C  0.29049510  0.68108975  0.71136721     1.10000
C29         C  0.28575336  0.80948955  0.75690600     1.10000
O30         O  0.73370574  0.19893015  0.71344862    -0.79600
O31         O  0.73410168  0.20059200  0.79042532    -0.79600
O32         O  0.78418644  0.21448991  0.74569271    -0.79600
O33         O  0.67496905  0.23851465  0.77522125    -0.79600
O34         O  0.78811064  0.20832243  0.78947100    -0.79700
O35         O  0.68944978  0.20268164  0.75061741    -0.79600
O36         O  0.71239326  0.23413772  0.81186341    -0.79600
O37         O  0.76190147  0.23069457  0.70173599    -0.79700
C38         C  0.75307687  0.20638166  0.69891355     1.10100
C39         C  0.71867482  0.20874881  0.80925104     1.10000
C40         C  0.79514561  0.20215746  0.76557686     1.10100
C41         C  0.67268974  0.21349672  0.76685103     1.10000
O42         O  0.67790523  0.25633478  0.72970704    -0.79600
O43         O  0.78684262  0.26009408  0.77041974    -0.79700
O44         O  0.74534589  0.28352709  0.72053215    -0.79600
O45         O  0.73666042  0.28615866  0.79695912    -0.79600
O46         O  0.75761659  0.25013039  0.81148981    -0.79700
O47         O  0.71954550  0.25403092  0.69775267    -0.79600
O48         O  0.69531994  0.28908638  0.75650340    -0.79600
O49         O  0.79706199  0.26517383  0.72735358    -0.79700
Co50       Co  0.70676052  0.22781288  0.72497394     1.51500
Co51       Co  0.75889068  0.22849755  0.77690471     1.51700
Co52       Co  0.76329767  0.25136931  0.73659760     1.51600
Co53       Co  0.70671731  0.26188744  0.78329981     1.51500
O54         O  0.72991737  0.24300144  0.75512857    -1.41500
C55         C  0.67834330  0.28120769  0.73893642     1.10000
C56         C  0.80214463  0.26950937  0.75206981     1.10100
C57         C  0.73062898  0.27758800  0.70037633     1.10000
C58         C  0.75336076  0.27589436  0.81300526     1.10000
O59         O  0.69922640  0.75299734  0.20622486    -0.79600
O60         O  0.80223644  0.77417170  0.20748383    -0.79600
O61         O  0.73141691  0.81062559  0.23376479    -0.79600
O62         O  0.76291950  0.69123178  0.23273090    -0.79600
O63         O  0.74867557  0.78425659  0.20120760    -0.79700
O64         O  0.73619118  0.70885376  0.20295704    -0.79600
O65         O  0.79269580  0.73095842  0.21711231    -0.79600
O66         O  0.68858634  0.78086254  0.24027084    -0.79700
C67         C  0.68544177  0.77279363  0.21583941     1.10100
C68         C  0.80621344  0.74853681  0.20354974     1.10000
C69         C  0.73641646  0.80604564  0.20897630     1.10100
C70         C  0.75182309  0.68982988  0.20984172     1.10000
O71         O  0.72036725  0.69496946  0.25647809    -0.79600
O72         O  0.77661179  0.80374302  0.24809795    -0.79700
O73         O  0.70818698  0.75942730  0.28994563    -0.79600
O74         O  0.80283340  0.71338102  0.26768906    -0.79600
O75         O  0.79902714  0.75788579  0.25947365    -0.79700
O76         O  0.68497857  0.73540255  0.25954055    -0.79600
O77         O  0.74964997  0.71360140  0.28461836    -0.79600
O78         O  0.75411157  0.79340147  0.28389752    -0.79700
Co79       Co  0.71199183  0.72473985  0.23106903     1.51500
Co80       Co  0.77186032  0.76754264  0.22856175     1.51700
Co81       Co  0.72204556  0.78390461  0.26199617     1.51600
Co82       Co  0.77028328  0.72652295  0.25309567     1.51500
O83         O  0.74027709  0.75098859  0.24441421    -1.41500
C84         C  0.73102903  0.69637159  0.27962748     1.10000
C85         C  0.77191842  0.80778417  0.27289173     1.10100
C86         C  0.68836182  0.74450084  0.28365526     1.10000
C87         C  0.81184227  0.73791965  0.27020600     1.10000
C88         C  0.51280981  0.00262543  0.01841830     0.02800
C89         C  0.51108824  0.02333101  0.99891927     0.02800
C90         C  0.48976728  0.02263760  0.98025034     0.02800
C91         C  0.47100501  0.00057395  0.98070708     0.02800
C92         C  0.47391940  0.97912238  0.99917925     0.02800
C93         C  0.49398721  0.98092747  0.01879342     0.02800
N94         N  0.67023634  0.99624661  0.14015229    -0.02900
C95         C  0.68792697  0.97552703  0.13618655    -0.00400
C96         C  0.71271883  0.98390619  0.14451449    -0.23200
C97         C  0.71031184  0.01068394  0.15381492    -0.23500
C98         C  0.68408331  0.01780823  0.15102555    -0.00500
H99         H  0.73012811  0.97113422  0.14595436     0.13300
H100        H  0.72565682  0.02306118  0.16331438     0.13400
N101        N  0.67197953  0.14529891  0.00711965    -0.02900
C102        C  0.69151937  0.13830168  0.98922848    -0.00400
C103        C  0.71594423  0.13958232  0.00145496    -0.23200
C104        C  0.71187887  0.14814235  0.02741394    -0.23500
C105        C  0.68502422  0.15147118  0.03055342    -0.00500
H106        H  0.73493379  0.13784683  0.99162237     0.13300
H107        H  0.72706192  0.15343958  0.04195466     0.13400
N108        N  0.34696045  0.01635678  0.82700703    -0.02900
C109        C  0.34149144  0.04278302  0.82165134    -0.00400
C110        C  0.33598463  0.04547126  0.79472810    -0.23200
C111        C  0.33806793  0.01963889  0.78302151    -0.23500
C112        C  0.34456435  0.00205693  0.80326569    -0.00500
H113        H  0.32861627  0.06368886  0.78524817     0.13300
H114        H  0.33279817  0.01386899  0.76256267     0.13400
N115        N  0.48241514  0.18504194  0.85746364    -0.04100
C116        C  0.46438832  0.20559144  0.85400756    -0.00400
C117        C  0.47620344  0.22798210  0.84237535    -0.23200
C118        C  0.50202316  0.22128252  0.83809950    -0.23500
C119        C  0.50535939  0.19496606  0.84709745    -0.00500
H120        H  0.46652107  0.24632172  0.83547725     0.13300
H121        H  0.51645869  0.23352068  0.82776375     0.13400
N122        N  0.49619766  0.86222366  0.18021973    -0.02900
C123        C  0.48002212  0.86737440  0.20165670    -0.00400
C124        C  0.49266800  0.86077730  0.22518786    -0.23200
C125        C  0.51732341  0.85157223  0.21819699    -0.23500
C126        C  0.51896628  0.85253949  0.19059934    -0.00500
H127        H  0.48409785  0.86024031  0.24507359     0.13300
H128        H  0.53189597  0.84329874  0.23158345     0.13400
N129        N  0.34668839  0.81832375  0.99020706    -0.02900
C130        C  0.32743245  0.81059925  0.00762022    -0.00400
C131        C  0.31332089  0.78854047  0.99672711    -0.23200
C132        C  0.32334090  0.78303523  0.97165447    -0.23500
C133        C  0.34346422  0.80168056  0.96795598    -0.00500
H134        H  0.29712978  0.77781667  0.00596875     0.13300
H135        H  0.31614931  0.76769078  0.95721151     0.13400
C136        C  0.97494248  0.49378870  0.98929534     0.02800
C137        C  0.99466637  0.49168654  0.96886852     0.02800
C138        C  0.01527074  0.51175437  0.96873917     0.02800
C139        C  0.01814683  0.53166468  0.99033258     0.02800
C140        C  0.99775785  0.53461777  0.00989168     0.02800
C141        C  0.97616162  0.51571049  0.00914549     0.02800
N142        N  0.20439728  0.61038290  0.99950384    -0.02900
C143        C  0.21902869  0.61027737  0.97634257    -0.00400
C144        C  0.24561039  0.61049064  0.98220340    -0.23200
C145        C  0.24783413  0.61260525  0.00941548    -0.23500
C146        C  0.22252293  0.61338012  0.01979313    -0.00500
H147        H  0.26163834  0.61296694  0.96810048     0.13300
H148        H  0.26603933  0.61623480  0.02029240     0.13400
N149        N  0.14872063  0.50684370  0.81986815    -0.02900
C150        C  0.15263272  0.52511359  0.80020585    -0.00400
C151        C  0.17059663  0.51452039  0.78165544    -0.23200
C152        C  0.17763920  0.48890498  0.78995302    -0.23500
C153        C  0.16404114  0.48473111  0.81348325    -0.00500
H154        H  0.17857062  0.52481190  0.76447440     0.13300
H155        H  0.19107339  0.47468251  0.77979484     0.13400
N156        N  0.99957839  0.66913075  0.16974038    -0.02900
C157        C  0.01899732  0.67807696  0.18683283    -0.00400
C158        C  0.00905329  0.69682359  0.20567730    -0.23200
C159        C  0.98276098  0.69957330  0.20034646    -0.23500
C160        C  0.97735771  0.68237428  0.17842246    -0.00500
H161        H  0.01987054  0.70728276  0.22171590     0.13300
H162        H  0.96890960  0.71259047  0.21139474     0.13400
N163        N  0.81873791  0.49452759  0.12636311    -0.02900
C164        C  0.81014369  0.46956553  0.13396860    -0.00400
C165        C  0.78317802  0.47023520  0.13796221    -0.23200
C166        C  0.77495318  0.49638550  0.13236510    -0.23500
C167        C  0.79714221  0.51098585  0.12508629    -0.00500
H168        H  0.77124659  0.45430207  0.14667741     0.13300
H169        H  0.75537720  0.50462800  0.13595856     0.13400
N170        N  0.98167320  0.30699894  0.86517279    -0.02900
C171        C  0.95817727  0.29513716  0.85753982    -0.00400
C172        C  0.96136034  0.26739318  0.85143250    -0.23200
C173        C  0.98740572  0.26171934  0.85406163    -0.23500
C174        C  0.99963954  0.28600221  0.86221966    -0.00500
H175        H  0.94672824  0.25349022  0.84276057     0.13300
H176        H  0.99679913  0.24256232  0.84777315     0.13400
N177        N  0.86280523  0.32216046  0.99559008    -0.02900
C178        C  0.86686598  0.30104028  0.01254595    -0.00400
C179        C  0.86177385  0.27608250  0.99930595    -0.23200
C180        C  0.85392829  0.28188344  0.97383309    -0.23500
C181        C  0.85439451  0.31021344  0.97208312    -0.00500
H182        H  0.86062986  0.25604158  0.00817732     0.13300
H183        H  0.84594557  0.26724835  0.95913043     0.13400
C184        C  0.51350205  0.48156321  0.50543853     0.02800
C185        C  0.49052391  0.47871691  0.52165269     0.02800
C186        C  0.46761178  0.49492978  0.51629695     0.02800
C187        C  0.46832089  0.51566746  0.49659761     0.02800
C188        C  0.49152360  0.51858153  0.48087057     0.02800
C189        C  0.51371252  0.50124901  0.48484516     0.02800
N190        N  0.48124100  0.34267899  0.67234534    -0.02900
C191        C  0.49964279  0.34046646  0.69227490    -0.00400
C192        C  0.48829419  0.33121641  0.71545017    -0.23200
C193        C  0.46211534  0.32755907  0.71015821    -0.23500
C194        C  0.45802563  0.33456403  0.68380914    -0.00500
H195        H  0.49834720  0.32621928  0.73382517     0.13300
H196        H  0.44772142  0.31896083  0.72361064     0.13400
N197        N  0.31797138  0.65500975  0.49659340    -0.02900
C198        C  0.30032878  0.66224817  0.47729605    -0.00400
C199        C  0.27896409  0.67572346  0.48884080    -0.23200
C200        C  0.28329162  0.67717338  0.51588079    -0.23500
C201        C  0.30720699  0.66451643  0.52029013    -0.00500
H202        H  0.26277746  0.68520046  0.47840480     0.13300
H203        H  0.27137466  0.68837579  0.53057347     0.13400
N204        N  0.67729739  0.50135377  0.36966231    -0.02900
C205        C  0.69457431  0.52280378  0.37093002    -0.00400
C206        C  0.72003413  0.51306040  0.36739549    -0.23200
C207        C  0.71833104  0.48519992  0.36245306    -0.23500
C208        C  0.69188940  0.47854405  0.36337998    -0.00500
H209        H  0.73753786  0.52543888  0.36450913     0.13300
H210        H  0.73434711  0.47177360  0.35607584     0.13400
N211        N  0.50114357  0.67550912  0.35326431    -0.02900
C212        C  0.47882991  0.68740842  0.34390566    -0.00400
C213        C  0.48388476  0.71393396  0.33607458    -0.23200
C214        C  0.51003236  0.71882708  0.34081155    -0.23500
C215        C  0.52023807  0.69511560  0.35134497    -0.00500
H216        H  0.47020386  0.72771920  0.32660141     0.13300
H217        H  0.52080242  0.73732814  0.33601636     0.13400
N218        N  0.29685640  0.47870467  0.61416987    -0.02900
C219        C  0.27630548  0.46090897  0.61119213    -0.00400
C220        C  0.25289883  0.47448715  0.61711812    -0.23200
C221        C  0.25920858  0.50141781  0.62335559    -0.23500
C222        C  0.28625062  0.50355847  0.62113902    -0.00500
H223        H  0.23353941  0.46533572  0.61903686     0.13300
H224        H  0.24575333  0.51728099  0.63068370     0.13400
N225        N  0.66783039  0.34993122  0.50689234    -0.02900
C226        C  0.68864043  0.34968034  0.52413774    -0.00400
C227        C  0.71080275  0.33903983  0.51144316    -0.23200
C228        C  0.70368327  0.33250888  0.48558359    -0.23500
C229        C  0.67740150  0.33936803  0.48316888    -0.00500
H230        H  0.72956591  0.33443528  0.52063637     0.13300
H231        H  0.71603627  0.32266195  0.47034275     0.13400
C232        C  0.99418239  0.00804283  0.52807990     0.02800
C233        C  0.01486647  0.98815634  0.52609527     0.02800
C234        C  0.01510279  0.96843087  0.50417916     0.02800
C235        C  0.99627110  0.97029201  0.48313741     0.02800
C236        C  0.97747633  0.99225786  0.48358301     0.02800
C237        C  0.97588790  0.01066667  0.50652961     0.02800
N238        N  0.98226320  0.11296682  0.70228638    -0.02900
C239        C  0.00648622  0.11109997  0.71421407    -0.00400
C240        C  0.00370610  0.10595979  0.74117308    -0.23200
C241        C  0.97726208  0.10480156  0.74638775    -0.23500
C242        C  0.96448185  0.10913967  0.72244230    -0.00500
H243        H  0.01926095  0.10605446  0.75605669     0.13300
H244        H  0.96832107  0.10342592  0.76601725     0.13400
N245        N  0.16913079  0.96555943  0.65342051    -0.02900
C246        C  0.17675767  0.94416237  0.66901939    -0.00400
C247        C  0.19710781  0.95201293  0.68596778    -0.23200
C248        C  0.20227901  0.97897137  0.68152801    -0.23500
C249        C  0.18493422  0.98705237  0.66200828    -0.00500
H250        H  0.20654760  0.93951991  0.70078116     0.13300
H251        H  0.21632312  0.99188258  0.69242571     0.13400
N252        N  0.17819278  0.84935387  0.50064162    -0.02900
C253        C  0.18630272  0.82958884  0.51751133    -0.00400
C254        C  0.21291182  0.82439202  0.51414899    -0.23200
C255        C  0.22151730  0.84102699  0.49439662    -0.23500
C256        C  0.20001465  0.85620437  0.48638731    -0.00500
H257        H  0.22474373  0.80975027  0.52478997     0.13300
H258        H  0.24100116  0.84069651  0.48549579     0.13400
N259        N  0.83679593  0.16021209  0.50062494    -0.02900
C260        C  0.82730754  0.17016498  0.47718855    -0.00400
C261        C  0.80099225  0.17714667  0.47992256    -0.23200
C262        C  0.79401792  0.17213806  0.50581482    -0.23500
C263        C  0.81614066  0.16195644  0.51822258    -0.00500
H264        H  0.78877947  0.18695884  0.46520288     0.13300
H265        H  0.77538918  0.17741162  0.51524569     0.13400
N266        N  0.85782396  0.00139577  0.32269326    -0.02900
C267        C  0.85539022  0.01967104  0.30263254    -0.00400
C268        C  0.83863804  0.00913967  0.28295326    -0.23200
C269        C  0.83040483  0.98383289  0.29102907    -0.23500
C270        C  0.84223599  0.97963003  0.31548459    -0.00500
H271        H  0.83182264  0.01956691  0.26538191     0.13300
H272        H  0.81675888  0.97014881  0.28050051     0.13400
N273        N  0.00421471  0.80728444  0.35094382    -0.02900
C274        C  0.98908504  0.78439929  0.35466509    -0.00400
C275        C  0.00488605  0.76105305  0.35259448    -0.23200
C276        C  0.02930417  0.76932326  0.34442121    -0.23500
C277        C  0.02817200  0.79758039  0.34283477    -0.00500
H278        H  0.99803382  0.73988925  0.35173185     0.13300
H279        H  0.04497759  0.75595721  0.33707469     0.13400
O280        O  0.23615969  0.19559663  0.70615421    -0.79600
O281        O  0.22233660  0.27294323  0.69877486    -0.79600
O282        O  0.17799036  0.20626369  0.74293925    -0.79600
O283        O  0.28343015  0.27216849  0.73175287    -0.79600
O284        O  0.18945168  0.22594357  0.70562671    -0.79700
O285        O  0.26982860  0.24337034  0.69994939    -0.79600
O286        O  0.24114583  0.30099557  0.72858558    -0.79600
O287        O  0.22007245  0.17722674  0.74266647    -0.79700
C288        C  0.22522984  0.17554586  0.71762777     1.10100
C289        C  0.23437658  0.29527075  0.70435885     1.10000
C290        C  0.17545981  0.20849191  0.71776773     1.10100
C291        C  0.28447692  0.26354432  0.70749007     1.10000
O292        O  0.29208013  0.23009778  0.75174998    -0.79600
O293        O  0.17111192  0.25316845  0.75491806    -0.79700
O294        O  0.24057516  0.20748010  0.79019039    -0.79600
O295        O  0.22498895  0.28515741  0.78282426    -0.79600
O296        O  0.19991116  0.29582281  0.74897801    -0.79700
O297        O  0.26271994  0.18771649  0.75712549    -0.79600
O298        O  0.27169581  0.25291258  0.78450271    -0.79600
O299        O  0.19395674  0.23967356  0.78951869    -0.79700
Co300      Co  0.26207852  0.21629312  0.72866678     1.51500
Co301      Co  0.19877339  0.25995894  0.72720461     1.51700
Co302      Co  0.21033281  0.21068630  0.76579313     1.51600
Co303      Co  0.25312761  0.27485093  0.75719645     1.51500
O304        O  0.23108532  0.24040256  0.74456159    -1.41500
C305        C  0.29167885  0.23948379  0.77583147     1.10000
C306        C  0.17306375  0.24996056  0.78000760     1.10100
C307        C  0.25816158  0.19068041  0.78212134     1.10000
C308        C  0.20709583  0.30004726  0.77327350     1.10000
O309        O  0.76993201  0.19304119  0.26548009    -0.79600
O310        O  0.76351446  0.30859689  0.22735855    -0.79600
O311        O  0.78158713  0.22159875  0.18752244    -0.79600
O312        O  0.80099311  0.25359522  0.29097439    -0.79600
O313        O  0.77520912  0.26603011  0.19763660    -0.79700
O314        O  0.76968164  0.22773045  0.30803007    -0.79600
O315        O  0.79781496  0.29413049  0.24959023    -0.79600
O316        O  0.79753712  0.21676301  0.24042363    -0.79700
C317        C  0.79279058  0.19637446  0.25513417     1.10100
C318        C  0.78792454  0.31012577  0.23247298     1.10000
C319        C  0.78600376  0.24673949  0.18279677     1.10100
C320        C  0.79369485  0.23556427  0.30753974     1.10000
O321        O  0.71833672  0.24885798  0.29609594    -0.79600
O322        O  0.72491413  0.28556427  0.19439602    -0.79700
O323        O  0.74726508  0.19627450  0.22238708    -0.79600
O324        O  0.74736272  0.31114930  0.27319601    -0.79600
O325        O  0.71591779  0.28955619  0.24962626    -0.79700
O326        O  0.71635021  0.20968812  0.25058126    -0.79600
O327        O  0.75151503  0.27439111  0.31139641    -0.79600
O328        O  0.73205651  0.24074399  0.19946527    -0.79700
Co329      Co  0.74335673  0.22179615  0.27836679     1.51500
Co330      Co  0.74356003  0.27369188  0.22513478     1.51700
Co331      Co  0.76668802  0.23205910  0.22147552     1.51600
Co332      Co  0.77435628  0.28135545  0.27941833     1.51500
O333        O  0.75711108  0.25220563  0.25519312    -1.41500
C334        C  0.72763517  0.26655089  0.31319959     1.10000
C335        C  0.72003410  0.26055714  0.18771381     1.10100
C336        C  0.72373104  0.19427270  0.23072088     1.10000
C337        C  0.72349197  0.30958175  0.26501984     1.10000
O338        O  0.30061675  0.72917559  0.24841351    -0.79600
O339        O  0.18527984  0.75380813  0.27018557    -0.79600
O340        O  0.25646138  0.73726875  0.28571445    -0.79600
O341        O  0.21776507  0.73923856  0.19210728    -0.79600
O342        O  0.22574861  0.75744818  0.30975704    -0.79700
O343        O  0.25597664  0.72505125  0.21002515    -0.79600
O344        O  0.21126540  0.73066611  0.24362124    -0.79600
O345        O  0.30591290  0.75719505  0.28423376    -0.79700
C346        C  0.31430318  0.73705967  0.26924069     1.10100
C347        C  0.18922321  0.73296258  0.25500223     1.10000
C348        C  0.24276081  0.73828960  0.30674587     1.10100
C349        C  0.23733936  0.72290487  0.19186442     1.10000
O350        O  0.27761148  0.76965278  0.20741779    -0.79600
O351        O  0.23132903  0.81476207  0.29634907    -0.79700
O352        O  0.28929599  0.80614459  0.26184231    -0.79600
O353        O  0.18886884  0.78052731  0.22214916    -0.79600
O354        O  0.19424003  0.80884159  0.25760384    -0.79700
O355        O  0.29545252  0.77777830  0.22828378    -0.79600
O356        O  0.23945533  0.78917106  0.19818603    -0.79600
O357        O  0.26645889  0.79229864  0.30868055    -0.79700
Co358      Co  0.26763223  0.75127956  0.24304759     1.51500
Co359      Co  0.21095510  0.78327259  0.28203963     1.51700
Co360      Co  0.27191281  0.77195143  0.27301458     1.51600
Co361      Co  0.22477940  0.76155564  0.22234776     1.51500
O362        O  0.23913447  0.77992790  0.25303230    -1.41500
C363        C  0.26322553  0.78422653  0.19167042     1.10000
C364        C  0.25039808  0.81222106  0.31223563     1.10100
C365        C  0.30182812  0.80031408  0.24080065     1.10000
C366        C  0.18074083  0.80043050  0.23761245     1.10000
C367        C  0.15323851  0.81069500  0.23676358    -0.11400
C368        C  0.14726712  0.83710217  0.24802367     0.04000
C369        C  0.12339871  0.84154505  0.26162280    -0.12000
C370        C  0.10494525  0.82020843  0.26350230     0.18900
C371        C  0.10878368  0.79569651  0.24796906    -0.09000
C372        C  0.13290668  0.79104130  0.23476007    -0.02000
H373        H  0.12028256  0.86083185  0.27275021     0.05400
C374        C  0.08511287  0.82138833  0.28544491     0.20900
H375        H  0.13684867  0.77072878  0.22595620     0.10600
C376        C  0.05822167  0.82407298  0.27960069    -0.15400
C377        C  0.03906708  0.81975209  0.29936513     0.03600
C378        C  0.04677265  0.81225250  0.32536855    -0.10700
C379        C  0.07370401  0.81176312  0.33168889    -0.00700
C380        C  0.09282127  0.81659067  0.31210676    -0.05900
H381        H  0.05208701  0.82795983  0.25923794     0.06600
H382        H  0.07992102  0.80574636  0.35147973     0.10000
Br383      Br  0.08311343  0.76659229  0.24719503    -0.05600
Br384      Br  0.17259984  0.86654798  0.24860676    -0.02500
Br385      Br  0.00273644  0.82078827  0.28874888     0.00300
Br386      Br  0.12925824  0.81368405  0.32216566    -0.04000
C387        C  0.86212412  0.04941757  0.30353214    -0.11400
C388        C  0.87513896  0.06094920  0.28145026     0.04000
C389        C  0.87098806  0.08858313  0.27532607    -0.12000
C390        C  0.85330609  0.10497134  0.29039106     0.18900
C391        C  0.84193656  0.09417251  0.31366902    -0.09000
C392        C  0.84695633  0.06681366  0.32046990    -0.02000
H393        H  0.87948152  0.09645497  0.25715874     0.05400
C394        C  0.84199408  0.12982478  0.27810888     0.20900
H395        H  0.83603862  0.05812785  0.33687159     0.10600
C396        C  0.82322010  0.12583256  0.25770352    -0.15400
C397        C  0.80882552  0.14799957  0.24810283     0.03600
C398        C  0.81277294  0.17473526  0.25917177    -0.10700
C399        C  0.83337463  0.17919805  0.27762404    -0.00700
C400        C  0.84803269  0.15693097  0.28709958    -0.05900
H401        H  0.81904315  0.10517003  0.24988936     0.06600
H402        H  0.83743440  0.19983170  0.28540061     0.10000
Br403      Br  0.81546024  0.11412790  0.33366945    -0.05600
Br404      Br  0.89519858  0.03874925  0.25629906    -0.02500
Br405      Br  0.78389082  0.14077221  0.21984219     0.00300
Br406      Br  0.87588592  0.16431592  0.31218292    -0.04000
C407        C  0.84294433  0.17985633  0.45392199    -0.11400
C408        C  0.84222698  0.20818087  0.44812480     0.04000
C409        C  0.84482398  0.21656563  0.42164806    -0.12000
C410        C  0.84920556  0.19717347  0.40071717     0.18900
C411        C  0.85582419  0.16998166  0.40739438    -0.09000
C412        C  0.85171972  0.16122460  0.43366811    -0.02000
H413        H  0.84061716  0.23783618  0.41711383     0.05400
C414        C  0.83882055  0.20363218  0.37365850     0.20900
H415        H  0.85323726  0.13940862  0.43730608     0.10600
C416        C  0.84970963  0.22494800  0.35862079    -0.15400
C417        C  0.83652480  0.23498119  0.33593875     0.03600
C418        C  0.81170766  0.22382405  0.32820206    -0.10700
C419        C  0.80201799  0.20135228  0.34248855    -0.00700
C420        C  0.81477783  0.19178887  0.36509727    -0.05900
H421        H  0.86799792  0.23454415  0.36517150     0.06600
H422        H  0.78333767  0.19188221  0.33705102     0.10000
Br423      Br  0.86758266  0.14352449  0.38069717    -0.05600
Br424      Br  0.83424292  0.23590505  0.47518598    -0.02500
Br425      Br  0.85295519  0.26450383  0.31743591     0.00300
Br426      Br  0.79596591  0.16534150  0.38579752    -0.04000
C427        C  0.25120300  0.83166987  0.33587187    -0.11400
C428        C  0.26109878  0.82423229  0.36110450     0.04000
C429        C  0.25254108  0.83865401  0.38432993    -0.12000
C430        C  0.23452180  0.86053186  0.38279291     0.18900
C431        C  0.22773047  0.87038363  0.35761117    -0.09000
C432        C  0.23626168  0.85613767  0.33442041    -0.02000
H433        H  0.25829666  0.83136531  0.40378595     0.05400
C434        C  0.21967905  0.86881612  0.40723561     0.20900
H435        H  0.22919441  0.86293268  0.31522822     0.10600
C436        C  0.23178722  0.88545690  0.42711520    -0.15400
C437        C  0.22202165  0.88608824  0.45340318     0.03600
C438        C  0.20041040  0.86927692  0.46005716    -0.10700
C439        C  0.18602038  0.85615186  0.43932793    -0.00700
C440        C  0.19563587  0.85562211  0.41301303    -0.05900
H441        H  0.25001875  0.89608644  0.42273192     0.06600
H442        H  0.16944965  0.84306366  0.44408295     0.10000
Br443      Br  0.20460585  0.90131123  0.35406237    -0.05600
Br444      Br  0.28388603  0.79318294  0.36576013    -0.02500
Br445      Br  0.24100437  0.90685826  0.48049788     0.00300
Br446      Br  0.17772485  0.83272905  0.38667780    -0.04000
C447        C  0.18303731  0.01675368  0.65616251    -0.11400
C448        C  0.16366085  0.03352165  0.66870848     0.04000
C449        C  0.16835253  0.06186682  0.67292161    -0.12000
C450        C  0.19208756  0.07383344  0.66452760     0.18900
C451        C  0.21024839  0.05761307  0.64975746    -0.09000
C452        C  0.20584390  0.02933967  0.64609481    -0.02000
H453        H  0.15444001  0.07413982  0.68478736     0.05400
C454        C  0.20061193  0.10044887  0.67699723     0.20900
H455        H  0.22143478  0.01665474  0.63731348     0.10600
C456        C  0.21290379  0.09972242  0.70211768    -0.15400
C457        C  0.22208759  0.12385061  0.71493255     0.03600
C458        C  0.21872010  0.14953493  0.70279144    -0.10700
C459        C  0.20715119  0.15021591  0.67715316    -0.00700
C460        C  0.19814088  0.12576951  0.66424945    -0.05900
H461        H  0.21557776  0.08044710  0.71152943     0.06600
H462        H  0.20449295  0.16929802  0.66777423     0.10000
Br463      Br  0.24302406  0.07250976  0.63749136    -0.05600
Br464      Br  0.13283595  0.01791569  0.68456272    -0.02500
Br465      Br  0.24035686  0.11981647  0.74837487     0.00300
Br466      Br  0.18257643  0.12782171  0.62939404    -0.04000
C467        C  0.03104307  0.12431578  0.70494215    -0.11400
C468        C  0.05066024  0.11028180  0.68986697     0.04000
C469        C  0.07477898  0.12348846  0.68463947    -0.12000
C470        C  0.07981317  0.15050037  0.69463954     0.18900
C471        C  0.05952881  0.16472103  0.70867555    -0.09000
C472        C  0.03575271  0.15150754  0.71401549    -0.02000
H473        H  0.09012023  0.11220687  0.67387627     0.05400
C474        C  0.10710848  0.16200496  0.69428696     0.20900
H475        H  0.02080088  0.16246056  0.72569197     0.10600
C476        C  0.11262154  0.18674264  0.68130041    -0.15400
C477        C  0.13634026  0.20121927  0.68620753     0.03600
C478        C  0.15489083  0.19095060  0.70445281    -0.10700
C479        C  0.15036298  0.16486307  0.71511721    -0.00700
C480        C  0.12689933  0.15047572  0.71024872    -0.05900
H481        H  0.09773323  0.19570863  0.66873060     0.06600
H482        H  0.16440978  0.15644063  0.72898655     0.10000
Br483      Br  0.06329930  0.20170343  0.72263204    -0.05600
Br484      Br  0.04575617  0.07291739  0.67722518    -0.02500
Br485      Br  0.14081914  0.23630265  0.67016684     0.00300
Br486      Br  0.12171328  0.11683831  0.72887116    -0.04000
C487        C  0.99556563  0.94786499  0.46160120    -0.11400
C488        C  0.00607963  0.95114196  0.43563565     0.04000
C489        C  0.00656589  0.92871788  0.41701409    -0.12000
C490        C  0.99617287  0.90288020  0.42348562     0.18900
C491        C  0.98499215  0.89991476  0.44918626    -0.09000
C492        C  0.98506912  0.92208430  0.46796742    -0.02000
H493        H  0.01546055  0.93134682  0.39748866     0.05400
C494        C  0.99841286  0.87884599  0.40397586     0.20900
H495        H  0.97674274  0.91925821  0.48770836     0.10600
C496        C  0.01407507  0.85630751  0.41074523    -0.15400
C497        C  0.01616124  0.83287230  0.39367921     0.03600
C498        C  0.00251082  0.83149477  0.36879028    -0.10700
C499        C  0.98711913  0.85422312  0.36180375    -0.00700
C500        C  0.98507866  0.87776140  0.37907283    -0.05900
H501        H  0.02460724  0.85685609  0.42965869     0.06600
H502        H  0.97653769  0.85354461  0.34295998     0.10000
Br503      Br  0.96855913  0.86619329  0.45935483    -0.05600
Br504      Br  0.02114750  0.98529577  0.42496007    -0.02500
Br505      Br  0.03754982  0.80326925  0.40619861     0.00300
Br506      Br  0.96308931  0.90754883  0.36831060    -0.04000
C507        C  0.95887433  0.99535822  0.46037454    -0.11400
C508        C  0.95921148  0.01876599  0.44410534     0.04000
C509        C  0.94090491  0.02110494  0.42324164    -0.12000
C510        C  0.92333894  0.99958896  0.41670299     0.18900
C511        C  0.92456406  0.97526763  0.43131325    -0.09000
C512        C  0.94118465  0.97387615  0.45365348    -0.02000
H513        H  0.94120014  0.03929758  0.41120427     0.05400
C514        C  0.90589240  0.00182032  0.39291865     0.20900
H515        H  0.94089132  0.95546711  0.46531076     0.10600
C516        C  0.91744785  0.00309434  0.36742249    -0.15400
C517        C  0.90188907  0.00346637  0.34426376     0.03600
C518        C  0.87417355  0.00354724  0.34630867    -0.10700
C519        C  0.86255216  0.00270593  0.37182701    -0.00700
C520        C  0.87811891  0.00178283  0.39503786    -0.05900
H521        H  0.93873396  0.00260000  0.36546527     0.06600
H522        H  0.84126808  0.00223342  0.37357875     0.10000
Br523      Br  0.90640243  0.94233247  0.41957342    -0.05600
Br524      Br  0.98619738  0.04645024  0.44665937    -0.02500
Br525      Br  0.91949654  0.00045564  0.31037215     0.00300
Br526      Br  0.86051107  0.00018253  0.42902655    -0.04000
C527        C  0.95546689  0.03332511  0.50779925    -0.11400
C528        C  0.92830912  0.02799895  0.51105724     0.04000
C529        C  0.91001013  0.04974176  0.51075101    -0.12000
C530        C  0.91808176  0.07715073  0.50705969     0.18900
C531        C  0.94527461  0.08258280  0.50468574    -0.09000
C532        C  0.96345788  0.06087036  0.50505304    -0.02000
H533        H  0.88924185  0.04517439  0.51310718     0.05400
C534        C  0.89776716  0.09932382  0.50485414     0.20900
H535        H  0.98401148  0.06550900  0.50191143     0.10600
C536        C  0.89820320  0.12278809  0.52227900    -0.15400
C537        C  0.87909249  0.14366807  0.52041997     0.03600
C538        C  0.85802984  0.14044314  0.50218396    -0.10700
C539        C  0.85727527  0.11665863  0.48540382    -0.00700
C540        C  0.87749557  0.09709791  0.48555964    -0.05900
H541        H  0.91371602  0.12510217  0.53713770     0.06600
H542        H  0.84088886  0.11350049  0.47168779     0.10000
Br543      Br  0.95880027  0.11887882  0.49889270    -0.05600
Br544      Br  0.91508708  0.99154173  0.51617793    -0.02500
Br545      Br  0.88348586  0.17669306  0.54191643     0.00300
Br546      Br  0.87772690  0.06924250  0.45734491    -0.04000
C547        C  0.97699946  0.10809309  0.67375423    -0.11400
C548        C  0.99433128  0.11699789  0.65367198     0.04000
C549        C  0.99656430  0.10171375  0.62949291    -0.12000
C550        C  0.97759517  0.08174369  0.62183306     0.18900
C551        C  0.95579012  0.07853331  0.63928239    -0.09000
C552        C  0.95672277  0.08982202  0.66550986    -0.02000
H553        H  0.01325674  0.10592287  0.61683398     0.05400
C554        C  0.98166767  0.06342899  0.59713521     0.20900
H555        H  0.94168989  0.08362057  0.67945634     0.10600
C556        C  0.97423324  0.03541499  0.59773669    -0.15400
C557        C  0.97695816  0.01769710  0.57517215     0.03600
C558        C  0.99131864  0.02625641  0.55273747    -0.10700
C559        C  0.00091036  0.05335950  0.55285667    -0.00700
C560        C  0.99423144  0.07245480  0.57349847    -0.05900
H561        H  0.96569640  0.02714783  0.61565787     0.06600
H562        H  0.01204193  0.06027830  0.53582396     0.10000
Br563      Br  0.92349434  0.06069977  0.62832282    -0.05600
Br564      Br  0.00959222  0.15316526  0.65462330    -0.02500
Br565      Br  0.96017338  0.98221714  0.57585869     0.00300
Br566      Br  0.99923366  0.11064450  0.56567429    -0.04000
C567        C  0.03759620  0.98874104  0.54562095    -0.11400
C568        C  0.06347583  0.99390000  0.53676849     0.04000
C569        C  0.08508936  0.98819548  0.55322680    -0.12000
C570        C  0.08167548  0.98020380  0.57999126     0.18900
C571        C  0.05561902  0.98055787  0.59024553    -0.09000
C572        C  0.03406184  0.98275269  0.57278731    -0.02000
H573        H  0.10457007  0.99067813  0.54495388     0.05400
C574        C  0.10525354  0.97360653  0.59716917     0.20900
H575        H  0.01458741  0.97990540  0.58076381     0.10600
C576        C  0.12917988  0.98784657  0.59392170    -0.15400
C577        C  0.15121559  0.98242364  0.60986461     0.03600
C578        C  0.14869825  0.96610427  0.63277757    -0.10700
C579        C  0.12555729  0.95021769  0.63477400    -0.00700
C580        C  0.10507359  0.95221956  0.61589845    -0.05900
H581        H  0.13136373  0.00258826  0.57830711     0.06600
H582        H  0.12335484  0.93574663  0.65048146     0.10000
Br583      Br  0.04816028  0.98254542  0.62809466    -0.05600
Br584      Br  0.07013100  0.01074397  0.50309512    -0.02500
Br585      Br  0.18474442  0.99252688  0.59535267     0.00300
Br586      Br  0.07983595  0.92260222  0.61408429    -0.04000
C587        C  0.15350363  0.86419721  0.50129611    -0.11400
C588        C  0.12920989  0.85119631  0.49550878     0.04000
C589        C  0.10566746  0.86656561  0.49638708    -0.12000
C590        C  0.10595788  0.89502861  0.50266893     0.18900
C591        C  0.13035069  0.90785778  0.50864524    -0.09000
C592        C  0.15370941  0.89250236  0.50784099    -0.02000
H593        H  0.08717333  0.85644843  0.49137156     0.05400
C594        C  0.08111963  0.91143531  0.50146788     0.20900
H595        H  0.17227737  0.90267378  0.51244681     0.10600
C596        C  0.06148776  0.90889828  0.52120436    -0.15400
C597        C  0.03903771  0.92601151  0.52147784     0.03600
C598        C  0.03638788  0.94671794  0.50236670    -0.10700
C599        C  0.05516639  0.94773808  0.48167728    -0.00700
C600        C  0.07706238  0.93018931  0.48089648    -0.05900
H601        H  0.06376008  0.89381793  0.53656038     0.06600
H602        H  0.05334742  0.96293427  0.46651793     0.10000
Br603      Br  0.13299444  0.94632432  0.51810907    -0.05600
Br604      Br  0.12759755  0.81315647  0.48423446    -0.02500
Br605      Br  0.01197279  0.91963079  0.54744488     0.00300
Br606      Br  0.10086787  0.93247532  0.45110827    -0.04000
C607        C  0.71164649  0.27753927  0.33663205    -0.11400
C608        C  0.72317176  0.29432754  0.35750347     0.04000
C609        C  0.70790807  0.30397713  0.37913859    -0.12000
C610        C  0.68098109  0.29813944  0.38098088     0.18900
C611        C  0.66911922  0.28194118  0.36031121    -0.09000
C612        C  0.68445411  0.27157187  0.33857594    -0.02000
H613        H  0.71727483  0.31633910  0.39492560     0.05400
C614        C  0.66687330  0.30935674  0.40527965     0.20900
H615        H  0.67493533  0.25921451  0.32293250     0.10600
C616        C  0.66690088  0.33811862  0.41006834    -0.15400
C617        C  0.66510457  0.34947903  0.43625724     0.03600
C618        C  0.66288016  0.33208744  0.45816295    -0.10700
C619        C  0.65838082  0.30381368  0.45292108    -0.00700
C620        C  0.66078121  0.29228384  0.42682985    -0.05900
H621        H  0.67151392  0.35161790  0.39378164     0.06600
H622        H  0.65704695  0.29004748  0.46959459     0.10000
Br623      Br  0.63197153  0.27466601  0.36028421    -0.05600
Br624      Br  0.75963832  0.30554952  0.35915081    -0.02500
Br625      Br  0.67109043  0.38825485  0.44174695     0.00300
Br626      Br  0.66079074  0.25281355  0.42281644    -0.04000
C627        C  0.27820609  0.43036058  0.61083675    -0.11400
C628        C  0.25794985  0.41395825  0.59922211     0.04000
C629        C  0.25225373  0.38809410  0.60957849    -0.12000
C630        C  0.26746115  0.37792600  0.63053422     0.18900
C631        C  0.29090645  0.39178863  0.63793239    -0.09000
C632        C  0.29592649  0.41809013  0.62844181    -0.02000
H633        H  0.23484597  0.37698190  0.60271913     0.05400
C634        C  0.25637310  0.35663609  0.64799385     0.20900
H635        H  0.31212333  0.42988879  0.63705818     0.10600
C636        C  0.25369266  0.32911798  0.63884540    -0.15400
C637        C  0.24514547  0.30870922  0.65630843     0.03600
C638        C  0.23994993  0.31577705  0.68359797    -0.10700
C639        C  0.24111124  0.34365426  0.69199235    -0.00700
C640        C  0.24861603  0.36398002  0.67440916    -0.05900
H641        H  0.25874022  0.32343664  0.61829873     0.06600
H642        H  0.23609583  0.34977565  0.71244274     0.10000
Br643      Br  0.31478210  0.37691289  0.66348518    -0.05600
Br644      Br  0.23668255  0.42697820  0.57044584    -0.02500
Br645      Br  0.24187564  0.27176391  0.64182180     0.00300
Br646      Br  0.24741921  0.40170638  0.68740617    -0.04000
C647        C  0.45378648  0.67374836  0.33621316    -0.11400
C648        C  0.43097964  0.67907176  0.35168530     0.04000
C649        C  0.40655093  0.68187433  0.33905450    -0.12000
C650        C  0.40451896  0.67991402  0.31100278     0.18900
C651        C  0.42655971  0.67106832  0.29586576    -0.09000
C652        C  0.45082096  0.66727355  0.30867477    -0.02000
H653        H  0.38966918  0.68859284  0.35089574     0.05400
C654        C  0.38199580  0.69375308  0.29819981     0.20900
H655        H  0.46819684  0.66360837  0.29640988     0.10600
C656        C  0.38090302  0.72256980  0.30046396    -0.15400
C657        C  0.35949684  0.73711224  0.29054889     0.03600
C658        C  0.33883857  0.72279392  0.27699641    -0.10700
C659        C  0.34047471  0.69392360  0.27381247    -0.00700
C660        C  0.36154545  0.67933337  0.28485497    -0.05900
H661        H  0.39659825  0.73382211  0.31076254     0.06600
H662        H  0.32459915  0.68251873  0.26404133     0.10000
Br663      Br  0.42580827  0.66919907  0.25736834    -0.05600
Br664      Br  0.43264527  0.68750440  0.38938589    -0.02500
Br665      Br  0.35987745  0.77639630  0.29708365     0.00300
Br666      Br  0.36060861  0.63985193  0.28326817    -0.04000
C667        C  0.68198330  0.45175022  0.35213419    -0.11400
C668        C  0.66635466  0.45027340  0.32863308     0.04000
C669        C  0.66539983  0.42568096  0.31292623    -0.12000
C670        C  0.67977299  0.40238044  0.32028256     0.18900
C671        C  0.69393442  0.40341671  0.34460308    -0.09000
C672        C  0.69462885  0.42773899  0.36038611    -0.02000
H673        H  0.65484360  0.42529641  0.29403908     0.05400
C674        C  0.68410235  0.37908215  0.30068748     0.20900
H675        H  0.70719884  0.42864272  0.37794974     0.10600
C676        C  0.70229986  0.38278431  0.27997118    -0.15400
C677        C  0.71320512  0.36010450  0.26595296     0.03600
C678        C  0.70592121  0.33300766  0.27250657    -0.10700
C679        C  0.68542678  0.32946589  0.29106497    -0.00700
C680        C  0.67446928  0.35235627  0.30510512    -0.05900
H681        H  0.70956689  0.40326604  0.27607540     0.06600
H682        H  0.67929238  0.30891950  0.29604106     0.10000
Br683      Br  0.71620446  0.37364475  0.35500478    -0.05600
Br684      Br  0.64919534  0.48203597  0.31477039    -0.02500
Br685      Br  0.73929333  0.36747060  0.23922922     0.00300
Br686      Br  0.64779112  0.34646184  0.33152662    -0.04000
C687        C  0.30361718  0.66231053  0.44768209    -0.11400
C688        C  0.31442732  0.68594691  0.43599687     0.04000
C689        C  0.30569435  0.69419931  0.41074268    -0.12000
C690        C  0.28578072  0.67957653  0.39679447     0.18900
C691        C  0.27694534  0.65447149  0.40712390    -0.09000
C692        C  0.28595864  0.64601325  0.43224820    -0.02000
H693        H  0.31285547  0.71344993  0.40300621     0.05400
C694        C  0.27231565  0.69267924  0.37372023     0.20900
H695        H  0.27675730  0.62830724  0.44113350     0.10600
C696        C  0.27552125  0.68197114  0.34741764    -0.15400
C697        C  0.26432944  0.69519110  0.32540398     0.03600
C698        C  0.24980725  0.72000767  0.32936227    -0.10700
C699        C  0.24536462  0.72963566  0.35590732    -0.00700
C700        C  0.25641103  0.71631687  0.37782961    -0.05900
H701        H  0.28711076  0.66343540  0.34394281     0.06600
H702        H  0.23424786  0.74843066  0.35968183     0.10000
Br703      Br  0.24984192  0.63308183  0.38954749    -0.05600
Br704      Br  0.33725044  0.71063173  0.45590187    -0.02500
Br705      Br  0.26901216  0.67776111  0.29058966     0.00300
Br706      Br  0.24935332  0.73142680  0.41317948    -0.04000
C707        C  0.30448372  0.27744611  0.69030731    -0.11400
C708        C  0.31668787  0.26543212  0.66726504     0.04000
C709        C  0.33971014  0.27752438  0.65675016    -0.12000
C710        C  0.35206697  0.30023612  0.67002752     0.18900
C711        C  0.33901403  0.31282912  0.69216900    -0.09000
C712        C  0.31500650  0.30243007  0.70089430    -0.02000
H713        H  0.34928302  0.26766646  0.63956900     0.05400
C714        C  0.38004050  0.30794890  0.66402219     0.20900
H715        H  0.30597598  0.31265526  0.71820540     0.10600
C716        C  0.38687290  0.33582007  0.66033200    -0.15400
C717        C  0.41295316  0.34517631  0.66424158     0.03600
C718        C  0.43292398  0.32626101  0.67038743    -0.10700
C719        C  0.42659364  0.29805468  0.67040928    -0.00700
C720        C  0.40060352  0.28882027  0.66759858    -0.05900
H721        H  0.37147750  0.35079065  0.65719197     0.06600
H722        H  0.44173873  0.28326922  0.67521390     0.10000
Br723      Br  0.35491852  0.34103414  0.71490255    -0.05600
Br724      Br  0.30511999  0.23104102  0.65134220    -0.02500
Br725      Br  0.41962995  0.38407332  0.66457102     0.00300
Br726      Br  0.39443479  0.25036246  0.67323825    -0.04000
C727        C  0.44597981  0.53622564  0.49431095    -0.11400
C728        C  0.42105060  0.52951771  0.48302786     0.04000
C729        C  0.40095252  0.54952333  0.48222788    -0.12000
C730        C  0.40453263  0.57633255  0.49326404     0.18900
C731        C  0.42885754  0.58247768  0.50594447    -0.09000
C732        C  0.44938835  0.56294638  0.50561567    -0.02000
H733        H  0.38218741  0.54396961  0.47316103     0.05400
C734        C  0.38216903  0.59678219  0.49278912     0.20900
H735        H  0.46785377  0.56822418  0.51545354     0.10600
C736        C  0.35770392  0.58980342  0.50398988    -0.15400
C737        C  0.33638150  0.60830614  0.50424356     0.03600
C738        C  0.33922298  0.63499733  0.49405550    -0.10700
C739        C  0.36326498  0.64167732  0.48186512    -0.00700
C740        C  0.38438241  0.62271966  0.48066008    -0.05900
H741        H  0.35507920  0.56966932  0.51248841     0.06600
H742        H  0.36565762  0.66170489  0.47313870     0.10000
Br743      Br  0.43409192  0.61602068  0.52669952    -0.05600
Br744      Br  0.41268585  0.49339920  0.46892422    -0.02500
Br745      Br  0.30310316  0.59532875  0.51688384     0.00300
Br746      Br  0.41510200  0.63247675  0.46053611    -0.04000
C747        C  0.44278440  0.49025637  0.53160484    -0.11400
C748        C  0.42905467  0.46491498  0.52962953     0.04000
C749        C  0.40648582  0.46101101  0.54512469    -0.12000
C750        C  0.39660649  0.48230876  0.56191900     0.18900
C751        C  0.40990600  0.50775434  0.56356066    -0.09000
C752        C  0.43281738  0.51146470  0.54859012    -0.02000
H753        H  0.39595345  0.44158491  0.54330231     0.05400
C754        C  0.37115249  0.47843388  0.57561155     0.20900
H755        H  0.44306901  0.53101492  0.55041607     0.10600
C756        C  0.37003138  0.47846634  0.60377558    -0.15400
C757        C  0.34571610  0.47717724  0.61702738     0.03600
C758        C  0.32229705  0.47517919  0.60196221    -0.10700
C759        C  0.32364101  0.47355437  0.57388782    -0.00700
C760        C  0.34772670  0.47570967  0.56064675    -0.05900
H761        H  0.38800430  0.48030411  0.61539577     0.06600
H762        H  0.30560767  0.47262565  0.56228311     0.10000
Br763      Br  0.39689071  0.53852575  0.58481296    -0.05600
Br764      Br  0.43850765  0.43587454  0.50433514    -0.02500
Br765      Br  0.34531800  0.47846587  0.65547538     0.00300
Br766      Br  0.34726577  0.47794272  0.52224455    -0.04000
C767        C  0.49345593  0.54081321  0.46089466    -0.11400
C768        C  0.48136365  0.53864055  0.43548350     0.04000
C769        C  0.48381858  0.56013377  0.41749274    -0.12000
C770        C  0.50011835  0.58304309  0.42332872     0.18900
C771        C  0.51366224  0.58412375  0.44817408    -0.09000
C772        C  0.50940949  0.56375278  0.46692992    -0.02000
H773        H  0.47302079  0.55878446  0.39877587     0.05400
C774        C  0.50129756  0.60639033  0.40442521     0.20900
H775        H  0.51923343  0.56544541  0.48617338     0.10600
C776        C  0.49736128  0.63336984  0.41476355    -0.15400
C777        C  0.49885112  0.65607391  0.39832575     0.03600
C778        C  0.50183957  0.65218095  0.37041554    -0.10700
C779        C  0.50467555  0.62529855  0.35963113    -0.00700
C780        C  0.50544033  0.60255690  0.37640673    -0.05900
H781        H  0.49341162  0.63694225  0.43597045     0.06600
H782        H  0.50671898  0.62200308  0.33814323     0.10000
Br783      Br  0.53975821  0.61164473  0.45709104    -0.05600
Br784      Br  0.46307143  0.50600434  0.42353432    -0.02500
Br785      Br  0.49717092  0.69217685  0.41504370     0.00300
Br786      Br  0.51382817  0.56730830  0.35997532    -0.04000
C787        C  0.65268363  0.50124281  0.38436371    -0.11400
C788        C  0.65036571  0.48716293  0.40871294     0.04000
C789        C  0.62674646  0.48812740  0.42324976    -0.12000
C790        C  0.60525458  0.50363304  0.41460955     0.18900
C791        C  0.60789381  0.51880646  0.39107307    -0.09000
C792        C  0.63139356  0.51739335  0.37609595    -0.02000
H793        H  0.62532388  0.47718514  0.44179196     0.05400
C794        C  0.58101170  0.50462432  0.43146708     0.20900
H795        H  0.63325622  0.52927994  0.35820077     0.10600
C796        C  0.58214265  0.51738140  0.45712898    -0.15400
C797        C  0.56043212  0.51695018  0.47453230     0.03600
C798        C  0.53705924  0.50323159  0.46655852    -0.10700
C799        C  0.53576705  0.49088747  0.44070211    -0.00700
C800        C  0.55747899  0.49136419  0.42326333    -0.05900
H801        H  0.60010945  0.52763228  0.46369759     0.06600
H802        H  0.51798329  0.48021166  0.43432863     0.10000
Br803      Br  0.58067277  0.54312807  0.37968012    -0.05600
Br804      Br  0.67948560  0.46861881  0.42481832    -0.02500
Br805      Br  0.56359308  0.53602339  0.50860348     0.00300
Br806      Br  0.55454304  0.47228102  0.38909921    -0.04000
C807        C  0.53656832  0.46229735  0.50817391    -0.11400
C808        C  0.55347446  0.46278713  0.53076771     0.04000
C809        C  0.57424408  0.44372380  0.53228887    -0.12000
C810        C  0.57909011  0.42424554  0.51137602     0.18900
C811        C  0.56231065  0.42386594  0.48881846    -0.09000
C812        C  0.54126706  0.44248163  0.48753310    -0.02000
H813        H  0.58696131  0.44434863  0.54977814     0.05400
C814        C  0.60209988  0.40509379  0.51279671     0.20900
H815        H  0.52840013  0.44150208  0.47017411     0.10600
C816        C  0.59798781  0.37634516  0.51230740    -0.15400
C817        C  0.61932590  0.35784041  0.51077262     0.03600
C818        C  0.64530441  0.36794024  0.51009241    -0.10700
C819        C  0.64945098  0.39655625  0.51200427    -0.00700
C820        C  0.62825478  0.41507600  0.51318649    -0.05900
H821        H  0.57806045  0.36828726  0.51251713     0.06600
H822        H  0.66940203  0.40450799  0.51163477     0.10000
Br823      Br  0.56805433  0.39924183  0.45849091    -0.05600
Br824      Br  0.54997361  0.48939380  0.55976447    -0.02500
Br825      Br  0.61229304  0.31907525  0.50995159     0.00300
Br826      Br  0.63625261  0.45376327  0.51337843    -0.04000
C827        C  0.48422976  0.35955935  0.64891486    -0.11400
C828        C  0.47290472  0.35276268  0.62363457     0.04000
C829        C  0.47308777  0.37212134  0.60317643    -0.12000
C830        C  0.48698546  0.39722348  0.60608839     0.18900
C831        C  0.50043790  0.40267610  0.63050476    -0.09000
C832        C  0.49804056  0.38463246  0.65167969    -0.02000
H833        H  0.46281833  0.36714256  0.58462141     0.05400
C834        C  0.48732472  0.41751131  0.58391967     0.20900
H835        H  0.50724142  0.39033107  0.67050743     0.10600
C836        C  0.48224833  0.44553577  0.59005079    -0.15400
C837        C  0.48502488  0.46572368  0.57076274     0.03600
C838        C  0.48998114  0.45797606  0.54363401    -0.10700
C839        C  0.49413537  0.42983043  0.53727884    -0.00700
C840        C  0.49364282  0.40988063  0.55704201    -0.05900
H841        H  0.47720555  0.45203114  0.61041392     0.06600
H842        H  0.49800604  0.42324173  0.51668317     0.10000
Br843      Br  0.52406286  0.43336772  0.63590691    -0.05600
Br844      Br  0.46042982  0.31644991  0.61424869    -0.02500
Br845      Br  0.48514598  0.50348282  0.58359582     0.00300
Br846      Br  0.50371221  0.37308662  0.54605808    -0.04000
C847        C  0.86473274  0.30310163  0.04233764    -0.11400
C848        C  0.87791569  0.28400080  0.05844430     0.04000
C849        C  0.86758108  0.27737493  0.08357069    -0.12000
C850        C  0.84427852  0.28974286  0.09318861     0.18900
C851        C  0.83327590  0.31151247  0.07879915    -0.09000
C852        C  0.84350284  0.31803049  0.05359551    -0.02000
H853        H  0.87677401  0.26119100  0.09479026     0.05400
C854        C  0.83012107  0.27753182  0.11620788     0.20900
H855        H  0.83313656  0.33288266  0.04169846     0.10600
C856        C  0.84002877  0.28081461  0.14241838    -0.15400
C857        C  0.82667071  0.26952979  0.16423998     0.03600
C858        C  0.80293828  0.25478861  0.16008379    -0.10700
C859        C  0.79373167  0.25043709  0.13378385    -0.00700
C860        C  0.80714736  0.26148802  0.11196485    -0.05900
H861        H  0.85813586  0.29226221  0.14592173     0.06600
H862        H  0.77561847  0.23900099  0.13024986     0.10000
Br863      Br  0.80293780  0.33133497  0.09179813    -0.05600
Br864      Br  0.90890468  0.26482991  0.04599392    -0.02500
Br865      Br  0.84227457  0.27332862  0.19916586     0.00300
Br866      Br  0.79356135  0.25370867  0.07659603    -0.04000
C867        C  0.02865179  0.28856144  0.85941449    -0.11400
C868        C  0.04558608  0.26774512  0.86881145     0.04000
C869        C  0.07161081  0.26605789  0.85977893    -0.12000
C870        C  0.08104981  0.28419386  0.84076624     0.18900
C871        C  0.06466987  0.30570191  0.83230839    -0.09000
C872        C  0.03885118  0.30815929  0.84212327    -0.02000
H873        H  0.08387065  0.24916927  0.86597185     0.05400
C874        C  0.10531540  0.27646025  0.82594933     0.20900
H875        H  0.02602526  0.32374470  0.83421436     0.10600
C876        C  0.10233539  0.26348544  0.80073020    -0.15400
C877        C  0.12410861  0.25389297  0.78624574     0.03600
C878        C  0.14983156  0.25722880  0.79685284    -0.10700
C879        C  0.15276680  0.26937219  0.82264487    -0.00700
C880        C  0.13070698  0.27917079  0.83715532    -0.05900
H881        H  0.08272265  0.26041983  0.79238282     0.06600
H882        H  0.17229588  0.27178714  0.83129614     0.10000
Br883      Br  0.07568591  0.33005896  0.80500112    -0.05600
Br884      Br  0.03390868  0.23964917  0.89248603    -0.02500
Br885      Br  0.11686516  0.23498864  0.75268812     0.00300
Br886      Br  0.13593562  0.29688562  0.87164600    -0.04000
C887        C  0.80328559  0.33066023  0.21728213    -0.11400
C888        C  0.82684941  0.34343122  0.22632992     0.04000
C889        C  0.83767913  0.36532292  0.21198740    -0.12000
C890        C  0.82481569  0.37540678  0.18927445     0.18900
C891        C  0.80152168  0.36228043  0.18019618    -0.09000
C892        C  0.79169273  0.33979062  0.19351648    -0.02000
H893        H  0.85547994  0.37529719  0.21926383     0.05400
C894        C  0.83372335  0.40095771  0.17631252     0.20900
H895        H  0.77372466  0.33038695  0.18588466     0.10600
C896        C  0.83769068  0.40016499  0.14836265    -0.15400
C897        C  0.83338337  0.42371495  0.13345281     0.03600
C898        C  0.82664857  0.44871889  0.14681349    -0.10700
C899        C  0.82820027  0.45055239  0.17489914    -0.00700
C900        C  0.83127833  0.42684884  0.18978105    -0.05900
H901        H  0.84032647  0.38047782  0.13781554     0.06600
H902        H  0.82341893  0.46984807  0.18535691     0.10000
Br903      Br  0.77991275  0.37599804  0.15180859    -0.05600
Br904      Br  0.84386980  0.33360451  0.25897180    -0.02500
Br905      Br  0.83303326  0.41944590  0.09515405     0.00300
Br906      Br  0.82712829  0.43075703  0.22797282    -0.04000
C907        C  0.04714228  0.67006098  0.18758034    -0.11400
C908        C  0.06594942  0.68641867  0.17468867     0.04000
C909        C  0.09139394  0.68945812  0.18539599    -0.12000
C910        C  0.09862655  0.67646189  0.20908954     0.18900
C911        C  0.08069814  0.65789341  0.22042762    -0.09000
C912        C  0.05530386  0.65470342  0.20954593    -0.02000
H913        H  0.10485962  0.70387481  0.17643093     0.05400
C914        C  0.12298748  0.68593698  0.22344949     0.20900
H915        H  0.04097304  0.64246859  0.22008553     0.10600
C916        C  0.12056969  0.70058385  0.24812876    -0.15400
C917        C  0.14216494  0.71444160  0.25998666     0.03600
C918        C  0.16707054  0.71393251  0.24703138    -0.10700
C919        C  0.16964226  0.69770565  0.22319074    -0.00700
C920        C  0.14805205  0.68391113  0.21143006    -0.05900
H921        H  0.10138244  0.70237984  0.25764485     0.06600
H922        H  0.18827415  0.69696530  0.21259583     0.10000
Br923      Br  0.08925086  0.63815905  0.25199646    -0.05600
Br924      Br  0.05653348  0.70857145  0.14505277    -0.02500
Br925      Br  0.13569574  0.73432067  0.29331239     0.00300
Br926      Br  0.15362137  0.66324956  0.17843099    -0.04000
C927        C  0.16451798  0.45806001  0.82681586    -0.11400
C928        C  0.18896757  0.44638341  0.83352792     0.04000
C929        C  0.19186656  0.41776474  0.83303233    -0.12000
C930        C  0.17051953  0.40066544  0.82605153     0.18900
C931        C  0.14511370  0.41231785  0.82449004    -0.09000
C932        C  0.14225711  0.44101560  0.82462543    -0.02000
H933        H  0.21138893  0.40906642  0.83507638     0.05400
C934        C  0.17644869  0.37307313  0.81400092     0.20900
H935        H  0.12326392  0.44971398  0.81980741     0.10600
C936        C  0.18931750  0.35316881  0.82907413    -0.15400
C937        C  0.19936098  0.32892530  0.81672249     0.03600
C938        C  0.19581868  0.32398825  0.78874975    -0.10700
C939        C  0.18231546  0.34380910  0.77407999    -0.00700
C940        C  0.17345410  0.36832962  0.78613234    -0.05900
H941        H  0.19257158  0.35709571  0.85034211     0.06600
H942        H  0.17996498  0.34115080  0.75255753     0.10000
Br943      Br  0.11450092  0.38998579  0.81822145    -0.05600
Br944      Br  0.21975072  0.46869642  0.83965413    -0.02500
Br945      Br  0.21869319  0.30463837  0.83917636     0.00300
Br946      Br  0.16087225  0.39604878  0.76254985    -0.04000
C947        C  0.21821841  0.62279263  0.04837921    -0.11400
C948        C  0.20106713  0.64460515  0.05603151     0.04000
C949        C  0.20320215  0.65715704  0.08173682    -0.12000
C950        C  0.22318778  0.64960393  0.09965344     0.18900
C951        C  0.23913652  0.62673614  0.09273134    -0.09000
C952        C  0.23621986  0.61337468  0.06761848    -0.02000
H953        H  0.19056645  0.67451302  0.08696299     0.05400
C954        C  0.22899947  0.66771700  0.12368686     0.20900
H955        H  0.24956006  0.59663439  0.06231226     0.10600
C956        C  0.22840940  0.65716051  0.14970182    -0.15400
C957        C  0.23351579  0.67427051  0.17243758     0.03600
C958        C  0.23857947  0.70252622  0.16933294    -0.10700
C959        C  0.23975173  0.71284358  0.14343601    -0.00700
C960        C  0.23545072  0.69578625  0.12078054    -0.05900
H961        H  0.22358751  0.63568642  0.15235703     0.06600
H962        H  0.24344611  0.73459827  0.14084619     0.10000
Br963      Br  0.26745299  0.61492937  0.11519787    -0.05600
Br964      Br  0.17734670  0.66138657  0.03148726    -0.02500
Br965      Br  0.23219307  0.65855767  0.20722667     0.00300
Br966      Br  0.23899361  0.71220018  0.08639078    -0.04000
C967        C  0.03515110  0.51121649  0.94676273    -0.11400
C968        C  0.03552340  0.53177069  0.92734880     0.04000
C969        C  0.05440102  0.53074718  0.90691291    -0.12000
C970        C  0.07325470  0.50963804  0.90550526     0.18900
C971        C  0.07340932  0.48959015  0.92536677    -0.09000
C972        C  0.05429055  0.49036712  0.94561329    -0.02000
H973        H  0.05420468  0.54633794  0.89182740     0.05400
C974        C  0.09252077  0.50903300  0.88317419     0.20900
H975        H  0.05439114  0.47470298  0.96062186     0.10600
C976        C  0.11937338  0.51311349  0.88881765    -0.15400
C977        C  0.13805830  0.51262233  0.86816056     0.03600
C978        C  0.12989122  0.50887117  0.84134415    -0.10700
C979        C  0.10305171  0.50531122  0.83558596    -0.00700
C980        C  0.08438531  0.50501486  0.85626348    -0.05900
H981        H  0.12580495  0.51650669  0.90936823     0.06600
H982        H  0.09681413  0.50188018  0.81499279     0.10000
Br983      Br  0.09888206  0.46040804  0.92546941    -0.05600
Br984      Br  0.00920851  0.56013412  0.92615201    -0.02500
Br985      Br  0.17444470  0.51745964  0.87735969     0.00300
Br986      Br  0.04833064  0.49742953  0.84687245    -0.04000
C987        C  0.04484596  0.54492387  0.99485347    -0.11400
C988        C  0.04999559  0.57341908  0.99264468     0.04000
C989        C  0.07572606  0.58365053  0.99588097    -0.12000
C990        C  0.09735224  0.56605023  0.99944830     0.18900
C991        C  0.09227018  0.53756332  0.00180668    -0.09000
C992        C  0.06629925  0.52756096  0.00030186    -0.02000
H993        H  0.07903247  0.60564800  0.99452954     0.05400
C994        C  0.12474007  0.57794080  0.99983249     0.20900
H995        H  0.06291452  0.50565737  0.00226785     0.10600
C996        C  0.14227741  0.57208059  0.02067062    -0.15400
C997        C  0.16845846  0.58172399  0.02073211     0.03600
C998        C  0.17706815  0.60064088  0.00123364    -0.10700
C999        C  0.15877716  0.60735408  0.98114870    -0.00700
C1000       C  0.13369030  0.59526937  0.97952957    -0.05900
H1001       H  0.13595176  0.55875711  0.03645070     0.06600
H1002       H  0.16391871  0.62140416  0.96584755     0.10000
Br1003     Br  0.11988244  0.51075239  0.00460116    -0.05600
Br1004     Br  0.02391537  0.59964730  0.98309179    -0.02500
Br1005     Br  0.19134187  0.56414228  0.04560880     0.00300
Br1006     Br  0.11380975  0.60093482  0.94735035    -0.04000
C1007       C  0.99976689  0.55600875  0.03243925    -0.11400
C1008       C  0.98349151  0.57971309  0.03373504     0.04000
C1009       C  0.98460974  0.59814884  0.05599415    -0.12000
C1010       C  0.00250009  0.59432744  0.07702666     0.18900
C1011       C  0.01955868  0.57131296  0.07525277    -0.09000
C1012       C  0.01782602  0.55228582  0.05340246    -0.02000
H1013       H  0.97146911  0.61574970  0.05679751     0.05400
C1014       C  0.00254477  0.61402395  0.10086279     0.20900
H1015       H  0.03074693  0.53450851  0.05270940     0.10600
C1016       C  0.99794343  0.60398702  0.12664860    -0.15400
C1017       C  0.99793919  0.62172319  0.14948707     0.03600
C1018       C  0.00163759  0.65023297  0.14686821    -0.10700
C1019       C  0.00568832  0.66046359  0.12119969    -0.00700
C1020       C  0.00660549  0.64269489  0.09838529    -0.05900
H1021       H  0.99443996  0.58217991  0.12905247     0.06600
H1022       H  0.00821245  0.68241162  0.11894820     0.10000
Br1023     Br  0.04649078  0.56571170  0.10151519    -0.05600
Br1024     Br  0.96078668  0.58954640  0.00493565    -0.02500
Br1025     Br  0.99298349  0.60626502  0.18396402     0.00300
Br1026     Br  0.01479182  0.65862864  0.06463515    -0.04000
C1027       C  0.95583228  0.51704371  0.03081629    -0.11400
C1028       C  0.93024206  0.52681648  0.02589833     0.04000
C1029       C  0.91112437  0.52599420  0.04588576    -0.12000
C1030       C  0.91560585  0.51225833  0.06983471     0.18900
C1031       C  0.94100655  0.50141097  0.07450420    -0.09000
C1032       C  0.96122809  0.50535148  0.05569971    -0.02000
H1033       H  0.89167657  0.53396644  0.04162027     0.05400
C1034       C  0.89200022  0.50591958  0.08637019     0.20900
H1035       H  0.98060203  0.49687290  0.05934871     0.10600
C1036       C  0.86998356  0.49472608  0.07274893    -0.15400
C1037       C  0.84569702  0.49236889  0.08544003     0.03600
C1038       C  0.84337147  0.49891525  0.11297894    -0.10700
C1039       C  0.86544438  0.50881553  0.12721123    -0.00700
C1040       C  0.88941920  0.51346131  0.11392717    -0.05900
H1041       H  0.87133473  0.48902118  0.05158052     0.06600
H1042       H  0.86377021  0.51378855  0.14847407     0.10000
Br1043     Br  0.94819092  0.47724488  0.10335648    -0.05600
Br1044     Br  0.91878408  0.53823282  0.99139529    -0.02500
Br1045     Br  0.81584464  0.48151154  0.06392660     0.00300
Br1046     Br  0.91653445  0.53268425  0.13377909    -0.04000
C1047       C  0.95469383  0.47111052  0.99185772    -0.11400
C1048       C  0.93503511  0.46538256  0.97229130     0.04000
C1049       C  0.91834936  0.44241205  0.97458739    -0.12000
C1050       C  0.92058807  0.42477673  0.99625419     0.18900
C1051       C  0.93974213  0.43077444  0.01606181    -0.09000
C1052       C  0.95660827  0.45345568  0.01362872    -0.02000
H1053       H  0.90397395  0.43789896  0.95903165     0.05400
C1054       C  0.90486329  0.39875511  0.99653680     0.20900
H1055       H  0.97197512  0.45673632  0.02838595     0.10600
C1056       C  0.91816767  0.37356507  0.99316313    -0.15400
C1057       C  0.90460561  0.34847083  0.99324151     0.03600
C1058       C  0.87699271  0.34799347  0.99693792    -0.10700
C1059       C  0.86345461  0.37314690  0.99984872    -0.00700
C1060       C  0.87716289  0.39843232  0.99968563    -0.05900
H1061       H  0.93931823  0.37343458  0.99020518     0.06600
H1062       H  0.84220414  0.37305744  0.00216324     0.10000
Br1063     Br  0.94373049  0.40842719  0.04685391    -0.05600
Br1064     Br  0.93002385  0.48771347  0.94176414    -0.02500
Br1065     Br  0.92473233  0.31545166  0.98678504     0.00300
Br1066     Br  0.85742950  0.43191917  0.00440793    -0.04000
C1067       C  0.99631676  0.46552950  0.95138700    -0.11400
C1068       C  0.99330044  0.46437272  0.92307900     0.04000
C1069       C  0.99335509  0.43882040  0.90890395    -0.12000
C1070       C  0.99390808  0.41367481  0.92220962     0.18900
C1071       C  0.99702327  0.41489929  0.95048211    -0.09000
C1072       C  0.99956668  0.44040206  0.96428440    -0.02000
H1073       H  0.99188443  0.43864075  0.88724609     0.05400
C1074       C  0.99113452  0.38676583  0.90636746     0.20900
H1075       H  0.00254823  0.44058942  0.98579607     0.10600
C1076       C  0.00797369  0.36465581  0.91166550    -0.15400
C1077       C  0.00394515  0.33829364  0.89995063     0.03600
C1078       C  0.98578244  0.33415558  0.87844060    -0.10700
C1079       C  0.96992403  0.35696582  0.87205161    -0.00700
C1080       C  0.97142037  0.38226975  0.88662676    -0.05900
H1081       H  0.02332746  0.36731566  0.92651188     0.06600
H1082       H  0.95558342  0.35536339  0.85672751     0.10000
Br1083     Br  0.99511100  0.38307588  0.97235926    -0.05600
Br1084     Br  0.98639340  0.49595800  0.90220315    -0.02500
Br1085     Br  0.01968322  0.30899985  0.91928339     0.00300
Br1086     Br  0.94378214  0.40843224  0.88054392    -0.04000
C1087       C  0.32143734  0.82191008  0.03503361    -0.11400
C1088       C  0.29501627  0.82755818  0.04244749     0.04000
C1089       C  0.28713225  0.82649396  0.06938900    -0.12000
C1090       C  0.30537509  0.82074779  0.08965083     0.18900
C1091       C  0.33229855  0.81846251  0.08240097    -0.09000
C1092       C  0.34004351  0.81892642  0.05540736    -0.02000
H1093       H  0.26635927  0.82845546  0.07421953     0.05400
C1094       C  0.29562824  0.81318610  0.11689986     0.20900
H1095       H  0.36033563  0.81458009  0.05034445     0.10600
C1096       C  0.30259520  0.78735392  0.12661590    -0.15400
C1097       C  0.29312262  0.77826807  0.15117813     0.03600
C1098       C  0.27495662  0.79452628  0.16639001    -0.10700
C1099       C  0.26765971  0.82032323  0.15664821    -0.00700
C1100       C  0.27816507  0.82990663  0.13245305    -0.05900
H1101       H  0.31533149  0.77380802  0.11474523     0.06600
H1102       H  0.25409946  0.83330419  0.16812281     0.10000
Br1103     Br  0.35938898  0.81305458  0.10821254    -0.05600
Br1104     Br  0.26856073  0.83493245  0.01608986    -0.02500
Br1105     Br  0.30506526  0.74259288  0.16169016     0.00300
Br1106     Br  0.26903555  0.86646046  0.12225919    -0.04000
C1107       C  0.45081105  0.86915283  0.20034544    -0.11400
C1108       C  0.43606305  0.88363843  0.22035322     0.04000
C1109       C  0.40958052  0.87661937  0.22489486    -0.12000
C1110       C  0.39753621  0.85531399  0.20965360     0.18900
C1111       C  0.41140917  0.84328154  0.18773917    -0.09000
C1112       C  0.43767595  0.85033128  0.18319414    -0.02000
H1113       H  0.39900512  0.88644811  0.24153975     0.05400
C1114       C  0.37264195  0.84268206  0.21906385     0.20900
H1115       H  0.44856066  0.83876636  0.16788812     0.10600
C1116       C  0.34847454  0.85692076  0.21818915    -0.15400
C1117       C  0.32478761  0.84388064  0.22549762     0.03600
C1118       C  0.32521042  0.81601836  0.23266801    -0.10700
C1119       C  0.34932659  0.80215277  0.23364558    -0.00700
C1120       C  0.37292069  0.81552596  0.22824489    -0.05900
H1121       H  0.34802120  0.87796233  0.21161641     0.06600
H1122       H  0.34990316  0.78087284  0.23952601     0.10000
Br1123     Br  0.39654846  0.81431845  0.16560632    -0.05600
Br1124     Br  0.45165526  0.91202584  0.24287540    -0.02500
Br1125     Br  0.29243239  0.86418386  0.22426046     0.00300
Br1126     Br  0.40513021  0.79608669  0.23504625    -0.04000
C1127       C  0.43521634  0.20312190  0.85417819    -0.11400
C1128       C  0.41942411  0.22539639  0.86378422     0.04000
C1129       C  0.39306918  0.22723870  0.85592801    -0.12000
C1130       C  0.38212915  0.20759966  0.83802850     0.18900
C1131       C  0.39710913  0.18417201  0.83027307    -0.09000
C1132       C  0.42336772  0.18186877  0.83870653    -0.02000
H1133       H  0.38179147  0.24543171  0.86186283     0.05400
C1134       C  0.35821065  0.21529977  0.82300199     0.20900
H1135       H  0.43524590  0.16482646  0.83088722     0.10600
C1136       C  0.36155878  0.22279979  0.79635115    -0.15400
C1137       C  0.34040718  0.23206475  0.78129163     0.03600
C1138       C  0.31490994  0.23387183  0.79282069    -0.10700
C1139       C  0.31167614  0.22728270  0.81989938    -0.00700
C1140       C  0.33313674  0.21800719  0.83500241    -0.05900
H1141       H  0.38098652  0.22181987  0.78728474     0.06600
H1142       H  0.29229382  0.22840080  0.82903896     0.10000
Br1143     Br  0.38333306  0.15648069  0.80577098    -0.05600
Br1144     Br  0.43336161  0.25532837  0.88568910    -0.02500
Br1145     Br  0.34832732  0.24317620  0.74543580     0.00300
Br1146     Br  0.32728933  0.20830782  0.87148766    -0.04000
C1147       C  0.33213047  0.06321427  0.84169627    -0.11400
C1148       C  0.34688493  0.08711334  0.84739882     0.04000
C1149       C  0.33372761  0.11174063  0.85386219    -0.12000
C1150       C  0.30607826  0.11293588  0.85168183     0.18900
C1151       C  0.29163135  0.08805735  0.85092248    -0.09000
C1152       C  0.30497397  0.06317974  0.84676067    -0.02000
H1153       H  0.34502599  0.13074599  0.85467410     0.05400
C1154       C  0.29558679  0.13607664  0.83652523     0.20900
H1155       H  0.29359550  0.04461690  0.84247616     0.10600
C1156       C  0.30465559  0.13786455  0.81011887    -0.15400
C1157       C  0.29362484  0.15609841  0.79252065     0.03600
C1158       C  0.27242572  0.17321278  0.80115218    -0.10700
C1159       C  0.26408474  0.17234766  0.82815754    -0.00700
C1160       C  0.27552877  0.15387882  0.84585641    -0.05900
H1161       H  0.32003531  0.12404941  0.80273409     0.06600
H1162       H  0.24817425  0.18549296  0.83537279     0.10000
Br1163     Br  0.25397259  0.08713841  0.84686038    -0.05600
Br1164     Br  0.38409200  0.08817093  0.84071472    -0.02500
Br1165     Br  0.30888754  0.15509411  0.75708401     0.00300
Br1166     Br  0.26302471  0.15315916  0.88214000    -0.04000
C1167       C  0.67415730  0.16565681  0.05500048    -0.11400
C1168       C  0.68188959  0.15704872  0.08057902     0.04000
C1169       C  0.68062504  0.17538517  0.10279511    -0.12000
C1170       C  0.67167634  0.20258715  0.10025027     0.18900
C1171       C  0.66168839  0.21040393  0.07513759    -0.09000
C1172       C  0.66284313  0.19191068  0.05281549    -0.02000
H1173       H  0.68854591  0.16893889  0.12174778     0.05400
C1174       C  0.67733382  0.22297847  0.12266395     0.20900
H1175       H  0.65707603  0.19895961  0.03327227     0.10600
C1176       C  0.69458721  0.24507182  0.11797851    -0.15400
C1177       C  0.70615869  0.26026909  0.13933160     0.03600
C1178       C  0.70141437  0.25273863  0.16594418    -0.10700
C1179       C  0.68250629  0.23230356  0.17071606    -0.00700
C1180       C  0.67004857  0.21795289  0.14941298    -0.05900
H1181       H  0.70059054  0.24931691  0.09767433     0.06600
H1182       H  0.67838760  0.22650223  0.19112175     0.10000
Br1183     Br  0.64774861  0.24658470  0.06996056    -0.05600
Br1184     Br  0.69691265  0.12121863  0.08562474    -0.02500
Br1185     Br  0.73078034  0.28880399  0.13103534     0.00300
Br1186     Br  0.64374451  0.19127051  0.15797192    -0.04000
C1187       C  0.67306137  0.04325017  0.16399711    -0.11400
C1188       C  0.67704508  0.04826188  0.19172302     0.04000
C1189       C  0.67643472  0.07522970  0.20252616    -0.12000
C1190       C  0.67037057  0.09757732  0.18641959     0.18900
C1191       C  0.66192321  0.09175524  0.15973796    -0.09000
C1192       C  0.66400857  0.06486894  0.14847747    -0.02000
H1193       H  0.68257463  0.07883959  0.22314231     0.05400
C1194       C  0.67861497  0.12594250  0.19593471     0.20900
H1195       H  0.65998341  0.06122631  0.12732704     0.10600
C1196       C  0.69728243  0.13980869  0.18059154    -0.15400
C1197       C  0.71065516  0.16309284  0.19080908     0.03600
C1198       C  0.70601437  0.17308830  0.21749424    -0.10700
C1199       C  0.68572602  0.16059634  0.23212855    -0.00700
C1200       C  0.67207875  0.13730930  0.22158281    -0.05900
H1201       H  0.70259602  0.13161536  0.16083677     0.06600
H1202       H  0.68123947  0.16814294  0.25231932     0.10000
Br1203     Br  0.64746739  0.11973815  0.13797909    -0.05600
Br1204     Br  0.68513687  0.01889937  0.21529644    -0.02500
Br1205     Br  0.73511718  0.17966156  0.16666605     0.00300
Br1206     Br  0.64474726  0.12166181  0.24294638    -0.04000
C1207       C  0.44857536  0.99935140  0.96137183    -0.11400
C1208       C  0.42794853  0.01878810  0.96236021     0.04000
C1209       C  0.40943501  0.01913454  0.94148941    -0.12000
C1210       C  0.41037878  0.99934505  0.92024739     0.18900
C1211       C  0.42935402  0.97821353  0.92094548    -0.09000
C1212       C  0.44820515  0.97847721  0.94126318    -0.02000
H1213       H  0.39457927  0.03520885  0.94158348     0.05400
C1214       C  0.39324161  0.00225097  0.89640663     0.20900
H1215       H  0.46351189  0.96290453  0.94056801     0.10600
C1216       C  0.40521388  0.00561115  0.87131656    -0.15400
C1217       C  0.39009093  0.00857458  0.84820064     0.03600
C1218       C  0.36236532  0.00886606  0.84987950    -0.10700
C1219       C  0.35038209  0.00665167  0.87512588    -0.00700
C1220       C  0.36550556  0.00258640  0.89818007    -0.05900
H1221       H  0.42654788  0.00625352  0.86976357     0.06600
H1222       H  0.32920494  0.00862388  0.87706336     0.10000
Br1223     Br  0.43064909  0.94861572  0.89447351    -0.05600
Br1224     Br  0.42377263  0.04429048  0.99226792    -0.02500
Br1225     Br  0.40823987  0.01467987  0.81513485     0.00300
Br1226     Br  0.34738554  0.99688108  0.93134453    -0.04000
C1227       C  0.45570124  0.95465957  0.99843289    -0.11400
C1228       C  0.46298793  0.92935841  0.98568734     0.04000
C1229       C  0.44529159  0.90701084  0.98493525    -0.12000
C1230       C  0.42060256  0.90894291  0.99774459     0.18900
C1231       C  0.41436981  0.93350582  0.01232765    -0.09000
C1232       C  0.43128119  0.95635560  0.01161948    -0.02000
H1233       H  0.45077443  0.88808999  0.97419385     0.05400
C1234       C  0.40148542  0.88546662  0.99554157     0.20900
H1235       H  0.42555129  0.97537321  0.02192071     0.10600
C1236       C  0.40839636  0.85945286  0.00504232    -0.15400
C1237       C  0.39055799  0.83724334  0.00347288     0.03600
C1238       C  0.36501723  0.84099972  0.99304742    -0.10700
C1239       C  0.35835213  0.86667203  0.98292483    -0.00700
C1240       C  0.37642801  0.88859875  0.98358543    -0.05900
H1241       H  0.42778949  0.85636614  0.01355532     0.06600
H1242       H  0.33918910  0.86938484  0.97379120     0.10000
Br1243     Br  0.38400824  0.93607438  0.03527762    -0.05600
Br1244     Br  0.49670527  0.92460208  0.96859467    -0.02500
Br1245     Br  0.40220741  0.80181162  0.01458149     0.00300
Br1246     Br  0.36665616  0.92172198  0.96602020    -0.04000
C1247       C  0.64557504  0.13341472  0.00596296    -0.11400
C1248       C  0.62785363  0.13725899  0.98436764     0.04000
C1249       C  0.60494131  0.12087692  0.98180901    -0.12000
C1250       C  0.59834014  0.10171251  0.00125334     0.18900
C1251       C  0.61458198  0.09984591  0.02397924    -0.09000
C1252       C  0.63805600  0.11496571  0.02584679    -0.02000
H1253       H  0.59193395  0.12348085  0.96483642     0.05400
C1254       C  0.57464604  0.08365153  0.99794810     0.20900
H1255       H  0.65088142  0.11171425  0.04281635     0.10600
C1256       C  0.57641903  0.05894540  0.98253610    -0.15400
C1257       C  0.55561073  0.03972464  0.98195666     0.03600
C1258       C  0.53259913  0.04473710  0.99726337    -0.10700
C1259       C  0.53060684  0.06995467  0.01191551    -0.00700
C1260       C  0.55112584  0.08940409  0.01204680    -0.05900
H1261       H  0.59436097  0.05424609  0.97147942     0.06600
H1262       H  0.51306531  0.07459464  0.02348891     0.10000
Br1263     Br  0.60544604  0.07689288  0.05316825    -0.05600
Br1264     Br  0.63189480  0.16619971  0.95944160    -0.02500
Br1265     Br  0.55971485  0.00648040  0.96058646     0.00300
Br1266     Br  0.54646052  0.12350109  0.03203907    -0.04000
C1267       C  0.47945540  0.15976279  0.87224609    -0.11400
C1268       C  0.46522365  0.15889688  0.89672163     0.04000
C1269       C  0.46500878  0.13484609  0.91148625    -0.12000
C1270       C  0.48228090  0.11289125  0.90546227     0.18900
C1271       C  0.49718197  0.11398490  0.88150737    -0.09000
C1272       C  0.49392779  0.13607619  0.86439165    -0.02000
H1273       H  0.45261958  0.13425703  0.92916267     0.05400
C1274       C  0.48450434  0.08977590  0.92467918     0.20900
H1275       H  0.50424642  0.13516198  0.84550423     0.10600
C1276       C  0.48570300  0.06222408  0.91499366    -0.15400
C1277       C  0.48924137  0.04044145  0.93245150     0.03600
C1278       C  0.48722520  0.04522164  0.96046375    -0.10700
C1279       C  0.48399957  0.07250536  0.97010756    -0.00700
C1280       C  0.48496031  0.09466552  0.95286133    -0.05900
H1281       H  0.48492536  0.05753896  0.89368432     0.06600
H1282       H  0.48193635  0.07675161  0.99135907     0.10000
Br1283     Br  0.52512564  0.08857939  0.87243537    -0.05600
Br1284     Br  0.44966005  0.19039700  0.91462374    -0.02500
Br1285     Br  0.50002568  0.00568927  0.91675878     0.00300
Br1286     Br  0.49044814  0.13057378  0.96946645    -0.04000
C1287       C  0.49363575  0.96113020  0.04110961    -0.11400
C1288       C  0.47635436  0.96533335  0.06295278     0.04000
C1289       C  0.47511237  0.94609398  0.08314242    -0.12000
C1290       C  0.49209051  0.92322461  0.08310108     0.18900
C1291       C  0.50888396  0.91847612  0.06078520    -0.09000
C1292       C  0.50928132  0.93722868  0.03990081    -0.02000
H1293       H  0.46173930  0.94981763  0.09984667     0.05400
C1294       C  0.49361427  0.90678224  0.10782635     0.20900
H1295       H  0.52220787  0.93336672  0.02291566     0.10600
C1296       C  0.48931020  0.87804959  0.10692835    -0.15400
C1297       C  0.49053774  0.86279690  0.13045117     0.03600
C1298       C  0.49465007  0.87652500  0.15542094    -0.10700
C1299       C  0.49883943  0.90503407  0.15626142    -0.00700
C1300       C  0.49896202  0.92004495  0.13288339    -0.05900
H1301       H  0.48519283  0.86745663  0.08794173     0.06600
H1302       H  0.50288640  0.91549855  0.17532137     0.10000
Br1303     Br  0.53266564  0.88775282  0.05836539    -0.05600
Br1304     Br  0.45489228  0.99775941  0.06687233    -0.02500
Br1305     Br  0.48709634  0.82349062  0.12763837     0.00300
Br1306     Br  0.50842317  0.95837180  0.13642215    -0.04000
C1307       C  0.64715498  0.99867709  0.12377486    -0.11400
C1308       C  0.62166853  0.99452889  0.13388909     0.04000
C1309       C  0.60000690  0.99466757  0.11641978    -0.12000
C1310       C  0.60347042  0.99894744  0.08883270     0.18900
C1311       C  0.62908057  0.00390233  0.07897592    -0.09000
C1312       C  0.65055574  0.00352720  0.09642560    -0.02000
H1313       H  0.58040072  0.99121482  0.12432766     0.05400
C1314       C  0.58009958  0.99927753  0.07099234     0.20900
H1315       H  0.67022665  0.00685985  0.08866393     0.10600
C1316       C  0.56002761  0.01858177  0.07637221    -0.15400
C1317       C  0.53770235  0.01971035  0.05996823     0.03600
C1318       C  0.53574503  0.00207895  0.03700238    -0.10700
C1319       C  0.55571937  0.98266667  0.03177151    -0.00700
C1320       C  0.57723089  0.98043024  0.04905332    -0.05900
H1321       H  0.56161976  0.03266702  0.09363032     0.06600
H1322       H  0.55417916  0.96863710  0.01447915     0.10000
Br1323     Br  0.63609221  0.01201911  0.04215840    -0.05600
Br1324     Br  0.61575866  0.98855036  0.17117006    -0.02500
Br1325     Br  0.51010209  0.04458683  0.07084195     0.00300
Br1326     Br  0.60075928  0.94985650  0.04306093    -0.04000
C1327       C  0.78669937  0.82979380  0.28823124    -0.11400
C1328       C  0.80288357  0.84935667  0.27527785     0.04000
C1329       C  0.81546246  0.87015305  0.29036466    -0.12000
C1330       C  0.81237285  0.87274810  0.31821040     0.18900
C1331       C  0.79676452  0.85335979  0.33134729    -0.09000
C1332       C  0.78426600  0.83200490  0.31642190    -0.02000
H1333       H  0.82695243  0.88541490  0.27999882     0.05400
C1334       C  0.82250583  0.89845721  0.33144848     0.20900
H1335       H  0.77225731  0.81733423  0.32693674     0.10600
C1336       C  0.80425331  0.91937274  0.33775847    -0.15400
C1337       C  0.81185320  0.94708105  0.33750810     0.03600
C1338       C  0.83781115  0.95408117  0.33025365    -0.10700
C1339       C  0.85694548  0.93324308  0.32853966    -0.00700
C1340       C  0.84943982  0.90544343  0.32951099    -0.05900
H1341       H  0.78352508  0.91437858  0.33976368     0.06600
H1342       H  0.87711588  0.93833848  0.32348086     0.10000
Br1343     Br  0.79210423  0.85538772  0.36949761    -0.05600
Br1344     Br  0.80838682  0.85110655  0.23705787    -0.02500
Br1345     Br  0.78536823  0.97485692  0.34329460     0.00300
Br1346     Br  0.87587891  0.87745548  0.32481702    -0.04000
C1347       C  0.72789360  0.82722935  0.19015487    -0.11400
C1348       C  0.72955914  0.85549663  0.19780629     0.04000
C1349       C  0.71844861  0.87521701  0.18182620    -0.12000
C1350       C  0.70305782  0.86773160  0.15953951     0.18900
C1351       C  0.70123253  0.83968965  0.15146393    -0.09000
C1352       C  0.71430203  0.81964631  0.16640132    -0.02000
H1353       H  0.72020868  0.89677572  0.18801925     0.05400
C1354       C  0.68876425  0.89041101  0.14669448     0.20900
H1355       H  0.71214417  0.79805317  0.16062741     0.10600
C1356       C  0.69830525  0.90025892  0.12236214    -0.15400
C1357       C  0.69457865  0.92796055  0.11601752     0.03600
C1358       C  0.68110599  0.94591316  0.13407739    -0.10700
C1359       C  0.66809627  0.93487862  0.15604645    -0.00700
C1360       C  0.67193925  0.90744595  0.16257524    -0.05900
H1361       H  0.71121959  0.88744251  0.10990494     0.06600
H1362       H  0.65812212  0.94846457  0.17043025     0.10000
Br1363     Br  0.67936602  0.82785705  0.12198142    -0.05600
Br1364     Br  0.74412580  0.86936783  0.23109814    -0.02500
Br1365     Br  0.71086878  0.94144945  0.08432844     0.00300
Br1366     Br  0.65844232  0.89609062  0.19649049    -0.04000
C1367       C  0.82704891  0.73772684  0.18475731    -0.11400
C1368       C  0.84969645  0.75311801  0.17790680     0.04000
C1369       C  0.87200525  0.73948334  0.16740257    -0.12000
C1370       C  0.87182216  0.71091575  0.16192860     0.18900
C1371       C  0.84791062  0.69657235  0.16446252    -0.09000
C1372       C  0.82604984  0.70971397  0.17636995    -0.02000
H1373       H  0.89010417  0.75103564  0.16503357     0.05400
C1374       C  0.89746611  0.69603386  0.15972760     0.20900
H1375       H  0.80857731  0.69763094  0.18003551     0.10600
C1376       C  0.90406677  0.67827091  0.18036467    -0.15400
C1377       C  0.93014627  0.67016588  0.18439056     0.03600
C1378       C  0.95031245  0.67972557  0.16758265    -0.10700
C1379       C  0.94338116  0.69481693  0.14508254    -0.00700
C1380       C  0.91711134  0.70294950  0.14102741    -0.05900
H1381       H  0.88928888  0.67269838  0.19495907     0.06600
H1382       H  0.95868497  0.70247357  0.13207802     0.10000
Br1383     Br  0.84466356  0.65892080  0.15226210    -0.05600
Br1384     Br  0.85251585  0.79231297  0.18333803    -0.02500
Br1385     Br  0.93776481  0.64923592  0.21548911     0.00300
Br1386     Br  0.90917189  0.72479043  0.11071752    -0.04000
C1387       C  0.83701872  0.74474772  0.28507984    -0.11400
C1388       C  0.85106869  0.76954137  0.28050542     0.04000
C1389       C  0.87395300  0.77627708  0.29476844    -0.12000
C1390       C  0.88462701  0.75841180  0.31311150     0.18900
C1391       C  0.87151236  0.73328735  0.31756213    -0.09000
C1392       C  0.84776158  0.72674866  0.30387282    -0.02000
H1393       H  0.88440501  0.79513925  0.29045156     0.05400
C1394       C  0.91115066  0.76530762  0.32427134     0.20900
H1395       H  0.83791545  0.70744889  0.30771166     0.10600
C1396       C  0.91380825  0.78043801  0.34872702    -0.15400
C1397       C  0.93889422  0.78831478  0.35858551     0.03600
C1398       C  0.96172972  0.78145330  0.34369257    -0.10700
C1399       C  0.95866071  0.76767337  0.31852602    -0.00700
C1400       C  0.93389080  0.75942325  0.30897882    -0.05900
H1401       H  0.89637421  0.78591850  0.36025039     0.06600
H1402       H  0.97588155  0.76232438  0.30656474     0.10000
Br1403     Br  0.88607721  0.70709006  0.34133996    -0.05600
Br1404     Br  0.84309972  0.79423457  0.25283273    -0.02500
Br1405     Br  0.94111642  0.80747657  0.39269643     0.00300
Br1406     Br  0.93213708  0.73945582  0.27509447    -0.04000
C1407       C  0.72137458  0.67602344  0.29920908    -0.11400
C1408       C  0.73722678  0.66442988  0.31920722     0.04000
C1409       C  0.72806477  0.64135080  0.33289436    -0.12000
C1410       C  0.70315389  0.62972925  0.32724811     0.18900
C1411       C  0.68647653  0.64284171  0.30914571    -0.09000
C1412       C  0.69567940  0.66543775  0.29525440    -0.02000
H1413       H  0.74093757  0.63164628  0.34713211     0.05400
C1414       C  0.69590839  0.60273839  0.33850979     0.20900
H1415       H  0.68267727  0.67445238  0.28068183     0.10600
C1416       C  0.69291568  0.60025926  0.36639459    -0.15400
C1417       C  0.68941720  0.57426708  0.37758377     0.03600
C1418       C  0.68858077  0.55042603  0.36080587    -0.10700
C1419       C  0.68963574  0.55319459  0.33288922    -0.00700
C1420       C  0.69383424  0.57884752  0.32170543    -0.05900
H1421       H  0.69434567  0.61842632  0.37952268     0.06600
H1422       H  0.68981897  0.53489741  0.31981750     0.10000
Br1423     Br  0.65111093  0.63030015  0.30220788    -0.05600
Br1424     Br  0.77207910  0.67758617  0.32730305    -0.02500
Br1425     Br  0.68734107  0.57183120  0.41579355     0.00300
Br1426     Br  0.70022493  0.57927212  0.28369929    -0.04000
C1427       C  0.75689388  0.66543015  0.19203917    -0.11400
C1428       C  0.75864868  0.63892506  0.20274066     0.04000
C1429       C  0.76697781  0.61666460  0.18655206    -0.12000
C1430       C  0.77412768  0.62002226  0.15967401     0.18900
C1431       C  0.77020623  0.64596464  0.14824520    -0.09000
C1432       C  0.76164201  0.66845750  0.16449635    -0.02000
H1433       H  0.76845330  0.59648830  0.19523889     0.05400
C1434       C  0.78537780  0.59572547  0.14473359     0.20900
H1435       H  0.75985526  0.68861860  0.15585864     0.10600
C1436       C  0.77150336  0.58359977  0.12301415    -0.15400
C1437       C  0.77756236  0.55679253  0.11356365     0.03600
C1438       C  0.79744434  0.54155113  0.12618239    -0.10700
C1439       C  0.81307455  0.55480165  0.14582997    -0.00700
C1440       C  0.80731048  0.58159047  0.15509669    -0.05900
H1441       H  0.75466326  0.59410947  0.11470071     0.06600
H1442       H  0.82809608  0.54336160  0.15616615     0.10000
Br1443     Br  0.77739560  0.65209922  0.11114299    -0.05600
Br1444     Br  0.74925131  0.63141472  0.23916559    -0.02500
Br1445     Br  0.75692732  0.54093767  0.08474691     0.00300
Br1446     Br  0.82837644  0.59650964  0.18411750    -0.04000
C1447       C  0.66436626  0.78626220  0.19985132    -0.11400
C1448       C  0.65448099  0.77559701  0.17497459     0.04000
C1449       C  0.63182318  0.78728832  0.16363560    -0.12000
C1450       C  0.61880623  0.80958557  0.17647939     0.18900
C1451       C  0.62930679  0.82085323  0.20055231    -0.09000
C1452       C  0.65209931  0.80977969  0.21146461    -0.02000
H1453       H  0.62363211  0.77816196  0.14534956     0.05400
C1454       C  0.59188654  0.81766584  0.16816461     0.20900
H1455       H  0.65920193  0.81873616  0.23028458     0.10600
C1456       C  0.57103919  0.80040878  0.17524720    -0.15400
C1457       C  0.54562036  0.81099361  0.17868215     0.03600
C1458       C  0.54091797  0.83933633  0.17551000    -0.10700
C1459       C  0.56077543  0.85559697  0.16444377    -0.00700
C1460       C  0.58615167  0.84467266  0.16023170    -0.05900
H1461       H  0.57501303  0.77940425  0.18082759     0.06600
H1462       H  0.55726597  0.87728805  0.16132458     0.10000
Br1463     Br  0.61097648  0.84848634  0.22186066    -0.05600
Br1464     Br  0.66964974  0.74440570  0.15598918    -0.02500
Br1465     Br  0.51860382  0.78679473  0.19119649     0.00300
Br1466     Br  0.61299246  0.86781027  0.14601819    -0.04000
C1467       C  0.66754712  0.73892061  0.30356479    -0.11400
C1468       C  0.64147975  0.74770513  0.29910261     0.04000
C1469       C  0.62091909  0.73786776  0.31476693    -0.12000
C1470       C  0.62565835  0.71894468  0.33484350     0.18900
C1471       C  0.65179850  0.71128813  0.34047364    -0.09000
C1472       C  0.67263858  0.72176554  0.32516660    -0.02000
H1473       H  0.60085735  0.74412673  0.31048974     0.05400
C1474       C  0.60240588  0.70590232  0.34720365     0.20900
H1475       H  0.69263646  0.71529661  0.32920368     0.10600
C1476       C  0.59105098  0.68313268  0.33355367    -0.15400
C1477       C  0.56443815  0.67647428  0.33727911     0.03600
C1478       C  0.54897830  0.69215387  0.35571298    -0.10700
C1479       C  0.56141634  0.71266784  0.37180012    -0.00700
C1480       C  0.58777488  0.71992124  0.36735292    -0.05900
H1481       H  0.60199025  0.67262114  0.31761973     0.06600
H1482       H  0.54974396  0.72531914  0.38560086     0.10000
Br1483     Br  0.65955466  0.68567570  0.36783964    -0.05600
Br1484     Br  0.63270385  0.77292876  0.27164641    -0.02500
Br1485     Br  0.54927285  0.65012052  0.31233648     0.00300
Br1486     Br  0.60179441  0.75164353  0.38635071    -0.04000
C1487       C  0.82638844  0.28348527  0.76107787    -0.11400
C1488       C  0.82550771  0.30926800  0.77488181     0.04000
C1489       C  0.84719961  0.31834609  0.79024195    -0.12000
C1490       C  0.86968495  0.30171649  0.79230112     0.18900
C1491       C  0.87078174  0.27629510  0.77782660    -0.09000
C1492       C  0.84934770  0.26753804  0.76214922    -0.02000
H1493       H  0.84603300  0.33771466  0.80160115     0.05400
C1494       C  0.89049483  0.30896239  0.81206758     0.20900
H1495       H  0.84980237  0.24717803  0.75252491     0.10600
C1496       C  0.88799776  0.29916381  0.83805926    -0.15400
C1497       C  0.90949579  0.29937296  0.85561500     0.03600
C1498       C  0.93433789  0.30847866  0.84687093    -0.10700
C1499       C  0.93624558  0.32036080  0.82151978    -0.00700
C1500       C  0.91439811  0.32105314  0.80431945    -0.05900
H1501       H  0.86975331  0.28969882  0.84401861     0.06600
H1502       H  0.95532038  0.32665674  0.81407585     0.10000
Br1503     Br  0.89992709  0.25141425  0.78129496    -0.05600
Br1504     Br  0.79444136  0.33176184  0.77451324    -0.02500
Br1505     Br  0.90528513  0.28296712  0.88988314     0.00300
Br1506     Br  0.91871704  0.33570907  0.76932716    -0.04000
C1507       C  0.81615760  0.18136196  0.75968474    -0.11400
C1508       C  0.83820460  0.17816267  0.77666228     0.04000
C1509       C  0.85969424  0.16209416  0.76788580    -0.12000
C1510       C  0.85976520  0.14889969  0.74244236     0.18900
C1511       C  0.83710787  0.15022258  0.72633574    -0.09000
C1512       C  0.81556128  0.16631903  0.73501703    -0.02000
H1513       H  0.87702954  0.16094691  0.78049414     0.05400
C1514       C  0.88468828  0.13641188  0.73235384     0.20900
H1515       H  0.79846990  0.16749886  0.72224041     0.10600
C1516       C  0.89158040  0.10964947  0.73946831    -0.15400
C1517       C  0.91698706  0.09939320  0.73425717     0.03600
C1518       C  0.93596284  0.11606842  0.72177871    -0.10700
C1519       C  0.92838903  0.14204841  0.71296142    -0.00700
C1520       C  0.90305552  0.15234015  0.71832889    -0.05900
H1521       H  0.87751808  0.09715020  0.75008144     0.06600
H1522       H  0.94279313  0.15520471  0.70360975     0.10000
Br1523     Br  0.83525919  0.13095882  0.69216387    -0.05600
Br1524     Br  0.84153966  0.19699218  0.81095665    -0.02500
Br1525     Br  0.92506575  0.06273905  0.74509743     0.00300
Br1526     Br  0.89511624  0.18930456  0.70844128    -0.04000
C1527       C  0.70997098  0.18974281  0.83019837    -0.11400
C1528       C  0.68611431  0.19403319  0.84460849     0.04000
C1529       C  0.68048575  0.17826311  0.86676404    -0.12000
C1530       C  0.69923359  0.16019488  0.87679545     0.18900
C1531       C  0.72256212  0.15502875  0.86215875    -0.09000
C1532       C  0.72734569  0.16909683  0.83849666    -0.02000
H1533       H  0.66273924  0.18269331  0.87830305     0.05400
C1534       C  0.69702850  0.15356728  0.90539592     0.20900
H1535       H  0.74593857  0.16580146  0.82808426     0.10600
C1536       C  0.68983574  0.12709008  0.91342700    -0.15400
C1537       C  0.68695550  0.12164619  0.94082375     0.03600
C1538       C  0.69049804  0.14306196  0.96020978    -0.10700
C1539       C  0.69776928  0.16937003  0.95198154    -0.00700
C1540       C  0.70124943  0.17467266  0.92496910    -0.05900
H1541       H  0.68673552  0.11070054  0.89846038     0.06600
H1542       H  0.70148542  0.18573832  0.96684574     0.10000
Br1543     Br  0.75000775  0.13224779  0.87584404    -0.05600
Br1544     Br  0.66164304  0.22328064  0.83813481    -0.02500
Br1545     Br  0.67915672  0.08485109  0.95117174     0.00300
Br1546     Br  0.71298524  0.21090704  0.91584053    -0.04000
C1547       C  0.76883216  0.29241413  0.83357944    -0.11400
C1548       C  0.76102689  0.31829874  0.84490959     0.04000
C1549       C  0.77539650  0.33043067  0.86655377    -0.12000
C1550       C  0.79742319  0.31709643  0.87739752     0.18900
C1551       C  0.80515189  0.29144874  0.86599620    -0.09000
C1552       C  0.79152456  0.27989934  0.84408082    -0.02000
H1553       H  0.76871674  0.34974046  0.87565699     0.05400
C1554       C  0.80996963  0.32718547  0.90293342     0.20900
H1555       H  0.79810922  0.26005061  0.83612417     0.10600
C1556       C  0.79696680  0.32201826  0.92707910    -0.15400
C1557       C  0.81108190  0.32067885  0.95114349     0.03600
C1558       C  0.83875878  0.32387747  0.95120334    -0.10700
C1559       C  0.85119510  0.33273939  0.92786226    -0.00700
C1560       C  0.83678011  0.33508330  0.90393893    -0.05900
H1561       H  0.77629232  0.31640796  0.92681845     0.06600
H1562       H  0.87235622  0.33576500  0.92766882     0.10000
Br1563     Br  0.83179474  0.26915817  0.88204815    -0.05600
Br1564     Br  0.72984768  0.33688798  0.83350606    -0.02500
Br1565     Br  0.79228370  0.31060209  0.98282268     0.00300
Br1566     Br  0.85459563  0.34730114  0.87263689    -0.04000
C1567       C  0.64847254  0.19896395  0.77521728    -0.11400
C1568       C  0.64819422  0.17210092  0.78538266     0.04000
C1569       C  0.62570555  0.16275851  0.79907512    -0.12000
C1570       C  0.60346793  0.17982417  0.80240130     0.18900
C1571       C  0.60340226  0.20593560  0.79095242    -0.09000
C1572       C  0.62552065  0.21506731  0.77738441    -0.02000
H1573       H  0.62575501  0.14247532  0.80755092     0.05400
C1574       C  0.57995745  0.17123366  0.81759820     0.20900
H1575       H  0.62522294  0.23568501  0.76958095     0.10600
C1576       C  0.57759296  0.18002663  0.84464994    -0.15400
C1577       C  0.55263055  0.18403950  0.85629061     0.03600
C1578       C  0.52987291  0.17965567  0.84067661    -0.10700
C1579       C  0.53234967  0.16757145  0.81480196    -0.00700
C1580       C  0.55721891  0.16278242  0.80344864    -0.05900
H1581       H  0.59498306  0.18654853  0.85578081     0.06600
H1582       H  0.51491611  0.16414266  0.80254159     0.10000
Br1583     Br  0.57402370  0.23081938  0.79464314    -0.05600
Br1584     Br  0.67824031  0.14825369  0.78266562    -0.02500
Br1585     Br  0.55017443  0.19891033  0.89229448     0.00300
Br1586     Br  0.55932629  0.14897686  0.76700846    -0.04000
C1587       C  0.65674709  0.29969715  0.73044301    -0.11400
C1588       C  0.63652653  0.30801241  0.74838606     0.04000
C1589       C  0.61304498  0.31927311  0.73854176    -0.12000
C1590       C  0.60955024  0.32342592  0.71095430     0.18900
C1591       C  0.63105228  0.31824147  0.69359148    -0.09000
C1592       C  0.65375555  0.30518167  0.70308727    -0.02000
H1593       H  0.59700281  0.32377529  0.75240851     0.05400
C1594       C  0.58287371  0.33124039  0.70079095     0.20900
H1595       H  0.66905587  0.29897904  0.68891608     0.10600
C1596       C  0.57032289  0.35489843  0.71161192    -0.15400
C1597       C  0.54355474  0.35999271  0.70659415     0.03600
C1598       C  0.52884194  0.34178805  0.68975360    -0.10700
C1599       C  0.54181863  0.31924931  0.67735972    -0.00700
C1600       C  0.56833331  0.31350220  0.68316114    -0.05900
H1601       H  0.58097128  0.36859190  0.72538010     0.06600
H1602       H  0.53053797  0.30438575  0.66541065     0.10000
Br1603     Br  0.63053029  0.32977704  0.65718941    -0.05600
Br1604     Br  0.63898736  0.30199324  0.78614837    -0.02500
Br1605     Br  0.52717761  0.39056763  0.72544750     0.00300
Br1606     Br  0.58206188  0.27873219  0.66998304    -0.04000
C1607       C  0.72813046  0.29555503  0.67717973    -0.11400
C1608       C  0.71761915  0.32243556  0.67885520     0.04000
C1609       C  0.70864510  0.33482387  0.65538812    -0.12000
C1610       C  0.71024466  0.32076812  0.63027692     0.18900
C1611       C  0.72298625  0.29498063  0.62854850    -0.09000
C1612       C  0.73158974  0.28267625  0.65180186    -0.02000
H1613       H  0.69956289  0.35503560  0.65684961     0.05400
C1614       C  0.69925846  0.33316472  0.60585756     0.20900
H1615       H  0.74006019  0.26215513  0.65015076     0.10600
C1616       C  0.71176846  0.35623337  0.59533334    -0.15400
C1617       C  0.70583317  0.36468283  0.56940631     0.03600
C1618       C  0.68693198  0.35017020  0.55374740    -0.10700
C1619       C  0.67232059  0.32919116  0.56548626    -0.00700
C1620       C  0.67844485  0.32045197  0.59123285    -0.05900
H1621       H  0.72749126  0.36643803  0.60649272     0.06600
H1622       H  0.65804463  0.31757955  0.55358285     0.10000
Br1623     Br  0.72889941  0.27520393  0.59504694    -0.05600
Br1624     Br  0.71304514  0.34190208  0.71260765    -0.02500
Br1625     Br  0.72558928  0.39460724  0.55518763     0.00300
Br1626     Br  0.65958939  0.28921039  0.60417497    -0.04000
C1627       C  0.81745960  0.16180795  0.54799325    -0.11400
C1628       C  0.81733570  0.18719645  0.56264059     0.04000
C1629       C  0.80998196  0.18832040  0.58963641    -0.12000
C1630       C  0.80304350  0.16442975  0.60310775     0.18900
C1631       C  0.80490831  0.13872340  0.58908919    -0.09000
C1632       C  0.81177602  0.13760041  0.56163436    -0.02000
H1633       H  0.80862696  0.20830681  0.59995202     0.05400
C1634       C  0.79215867  0.16788942  0.63090749     0.20900
H1635       H  0.81143478  0.11794852  0.55063319     0.10600
C1636       C  0.76559278  0.16121964  0.63606367    -0.15400
C1637       C  0.75272518  0.17109529  0.65958273     0.03600
C1638       C  0.76639018  0.18833566  0.67820190    -0.10700
C1639       C  0.79349946  0.19290010  0.67392587    -0.00700
C1640       C  0.80636732  0.18273339  0.65087303    -0.05900
H1641       H  0.75427305  0.14996847  0.62088554     0.06600
H1642       H  0.80461225  0.20571753  0.68810526     0.10000
Br1643     Br  0.79819532  0.10484347  0.60657448    -0.05600
Br1644     Br  0.82510295  0.22153408  0.54628539    -0.02500
Br1645     Br  0.71592360  0.16319911  0.66357387     0.00300
Br1646     Br  0.84320306  0.19106251  0.64693826    -0.04000
C1647       C  0.34529229  0.74348358  0.81455046    -0.11400
C1648       C  0.35862545  0.76892299  0.81423833     0.04000
C1649       C  0.36799154  0.78117924  0.83830422    -0.12000
C1650       C  0.36457045  0.76803210  0.86278796     0.18900
C1651       C  0.35407758  0.74102620  0.86242210    -0.09000
C1652       C  0.34499408  0.72887437  0.83833711    -0.02000
H1653       H  0.37600588  0.80185180  0.83820472     0.05400
C1654       C  0.36596577  0.78446251  0.88844286     0.20900
H1655       H  0.33423956  0.70960019  0.83899147     0.10600
C1656       C  0.34592094  0.80379633  0.89379284    -0.15400
C1657       C  0.34100203  0.81357821  0.92001899     0.03600
C1658       C  0.35619286  0.80395951  0.94144566    -0.10700
C1659       C  0.37836803  0.78749873  0.93563537    -0.00700
C1660       C  0.38346489  0.77790071  0.90924007    -0.05900
H1661       H  0.33247265  0.80932178  0.87793114     0.06600
H1662       H  0.39015094  0.77980154  0.95190890     0.10000
Br1663     Br  0.34659522  0.72190493  0.89471966    -0.05600
Br1664     Br  0.36157960  0.78879236  0.78177305    -0.02500
Br1665     Br  0.31062077  0.83650083  0.92625092     0.00300
Br1666     Br  0.41291135  0.75384386  0.90277819    -0.04000
C1667       C  0.24501212  0.69841864  0.83573002    -0.11400
C1668       C  0.21814717  0.69990750  0.84348401     0.04000
C1669       C  0.20902334  0.68456087  0.86514268    -0.12000
C1670       C  0.22631843  0.66825755  0.87993099     0.18900
C1671       C  0.25322353  0.66779009  0.87291763    -0.09000
C1672       C  0.26216434  0.68235163  0.85099207    -0.02000
H1673       H  0.18835785  0.68543872  0.87055285     0.05400
C1674       C  0.21671319  0.65230467  0.90307617     0.20900
H1675       H  0.28298097  0.68137820  0.84618978     0.10600
C1676       C  0.21986766  0.62348184  0.90251656    -0.15400
C1677       C  0.21728419  0.60850060  0.92596263     0.03600
C1678       C  0.21112789  0.62221261  0.95049153    -0.10700
C1679       C  0.20539870  0.65057471  0.95047089    -0.00700
C1680       C  0.20803447  0.66561004  0.92705032    -0.05900
H1681       H  0.22626678  0.61290278  0.88420673     0.06600
H1682       H  0.20119289  0.66152688  0.96924507     0.10000
Br1683     Br  0.27912550  0.64884143  0.89355130    -0.05600
Br1684     Br  0.19284115  0.72228057  0.82571658    -0.02500
Br1685     Br  0.22512533  0.56983496  0.92426728     0.00300
Br1686     Br  0.20302916  0.70478436  0.92986377    -0.04000
C1687       C  0.20259921  0.80035411  0.74372474    -0.11400
C1688       C  0.20299949  0.82809327  0.75351742     0.04000
C1689       C  0.19046981  0.84865957  0.73900138    -0.12000
C1690       C  0.17660423  0.84229789  0.71519593     0.18900
C1691       C  0.17356085  0.81439211  0.70724800    -0.09000
C1692       C  0.18660070  0.79381533  0.72126428    -0.02000
H1693       H  0.19273781  0.87002201  0.74563032     0.05400
C1694       C  0.16839554  0.86529689  0.69780713     0.20900
H1695       H  0.18537897  0.77269509  0.71361182     0.10600
C1696       C  0.18137211  0.86869634  0.67316729    -0.15400
C1697       C  0.17983370  0.89372681  0.65981815     0.03600
C1698       C  0.16566246  0.91607425  0.67129590    -0.10700
C1699       C  0.15009875  0.91145369  0.69410171    -0.00700
C1700       C  0.15141480  0.88640468  0.70737442    -0.05900
H1701       H  0.19441791  0.85263713  0.66533441     0.06600
H1702       H  0.13935100  0.92852213  0.70349721     0.10000
Br1703     Br  0.15183809  0.80340055  0.67742855    -0.05600
Br1704     Br  0.22218953  0.84015111  0.78497466    -0.02500
Br1705     Br  0.20058706  0.89829908  0.62807676     0.00300
Br1706     Br  0.13168694  0.88288565  0.73994118    -0.04000
C1707       C  0.34060852  0.97206234  0.79971566    -0.11400
C1708       C  0.32022101  0.95848358  0.81343100     0.04000
C1709       C  0.31241283  0.93207839  0.80487773    -0.12000
C1710       C  0.32375084  0.91927698  0.78213437     0.18900
C1711       C  0.34391142  0.93262958  0.76828851    -0.09000
C1712       C  0.35247143  0.95868499  0.77735627    -0.02000
H1713       H  0.29667850  0.92183385  0.81539361     0.05400
C1714       C  0.31496568  0.89138360  0.77411395     0.20900
H1715       H  0.36737491  0.96926361  0.76598263     0.10600
C1716       C  0.29714854  0.88727185  0.75281609    -0.15400
C1717       C  0.28752975  0.86080537  0.74608374     0.03600
C1718       C  0.29570870  0.83808934  0.76117026    -0.10700
C1719       C  0.31342003  0.84286019  0.78261498    -0.00700
C1720       C  0.32328729  0.86894583  0.78882089    -0.05900
H1721       H  0.29047246  0.90473857  0.74169422     0.06600
H1722       H  0.31960882  0.82626479  0.79508477     0.10000
Br1723     Br  0.35928927  0.91648713  0.73632437    -0.05600
Br1724     Br  0.29917085  0.97597220  0.84098922    -0.02500
Br1725     Br  0.26246504  0.85782961  0.71727166     0.00300
Br1726     Br  0.34832221  0.87290731  0.81760317    -0.04000
C1727       C  0.32294906  0.74394117  0.66926626    -0.11400
C1728       C  0.34118599  0.72201150  0.66750709     0.04000
C1729       C  0.34639120  0.70871214  0.64258906    -0.12000
C1730       C  0.33384911  0.71726590  0.61915852     0.18900
C1731       C  0.31773414  0.74094759  0.62063470    -0.09000
C1732       C  0.31298851  0.75438194  0.64540643    -0.02000
H1733       H  0.35888750  0.69059578  0.64177671     0.05400
C1734       C  0.33353993  0.69886764  0.59472783     0.20900
H1735       H  0.29835027  0.77066776  0.64641163     0.10600
C1736       C  0.31674791  0.67592205  0.59458259    -0.15400
C1737       C  0.30977579  0.66220631  0.57050339     0.03600
C1738       C  0.32121699  0.67003225  0.54601168    -0.10700
C1739       C  0.34023151  0.69114949  0.54663432    -0.00700
C1740       C  0.34582732  0.70609119  0.57058005    -0.05900
H1741       H  0.30691081  0.67040941  0.61297026     0.06600
H1742       H  0.34834973  0.69826366  0.52794869     0.10000
Br1743     Br  0.29771450  0.75280300  0.59043627    -0.05600
Br1744     Br  0.35790321  0.70836278  0.69884436    -0.02500
Br1745     Br  0.28133620  0.63620430  0.57199324     0.00300
Br1746     Br  0.36758663  0.73830761  0.56880561    -0.04000
C1747       C  0.21934783  0.76633404  0.65475157    -0.11400
C1748       C  0.22306114  0.79207425  0.64250010     0.04000
C1749       C  0.20597548  0.80022659  0.62232354    -0.12000
C1750       C  0.18483244  0.78363744  0.61359045     0.18900
C1751       C  0.18082686  0.75814205  0.62575807    -0.09000
C1752       C  0.19793318  0.74975474  0.64611478    -0.02000
H1753       H  0.20984765  0.81950439  0.61262318     0.05400
C1754       C  0.17076871  0.79189060  0.58891056     0.20900
H1755       H  0.19421028  0.73024271  0.65540861     0.10600
C1756       C  0.17406492  0.77529532  0.56561190    -0.15400
C1757       C  0.17352969  0.78698696  0.54038417     0.03600
C1758       C  0.17100672  0.81580735  0.53842807    -0.10700
C1759       C  0.16270431  0.83134250  0.56100711    -0.00700
C1760       C  0.16185719  0.81926373  0.58614913    -0.05900
H1761       H  0.18023800  0.75401040  0.56703175     0.06600
H1762       H  0.15978390  0.85338967  0.55973963     0.10000
Br1763     Br  0.15171362  0.73465370  0.61605597    -0.05600
Br1764     Br  0.25118901  0.81751942  0.65092958    -0.02500
Br1765     Br  0.18090799  0.76364417  0.50945262     0.00300
Br1766     Br  0.15095758  0.84157752  0.61642050    -0.04000
C1767       C  0.30055183  0.65806636  0.69394351    -0.11400
C1768       C  0.28797209  0.65026793  0.66955372     0.04000
C1769       C  0.29443802  0.62527413  0.65657550    -0.12000
C1770       C  0.31365967  0.60790580  0.66703377     0.18900
C1771       C  0.32864857  0.61727946  0.68928529    -0.09000
C1772       C  0.32183526  0.64207913  0.70275288    -0.02000
H1773       H  0.28331315  0.61864292  0.63890027     0.05400
C1774       C  0.31441097  0.57897127  0.65666811     0.20900
H1775       H  0.33244722  0.64817188  0.72089945     0.10600
C1776       C  0.31890260  0.57353752  0.62914283    -0.15400
C1777       C  0.31189191  0.54805300  0.61708131     0.03600
C1778       C  0.30076494  0.52744576  0.63282911    -0.10700
C1779       C  0.29838866  0.53213926  0.66060199    -0.00700
C1780       C  0.30462968  0.55767120  0.67253381    -0.05900
H1781       H  0.32582998  0.58990163  0.61665971     0.06600
H1782       H  0.28940447  0.51656480  0.67275565     0.10000
Br1783     Br  0.35783428  0.59641456  0.70233918    -0.05600
Br1784     Br  0.26164511  0.67240874  0.65278371    -0.02500
Br1785     Br  0.31473587  0.54389499  0.57883793     0.00300
Br1786     Br  0.29472430  0.56343405  0.70952114    -0.04000
C1787       C  0.21266929  0.67128659  0.76548303    -0.11400
C1788       C  0.18525329  0.67693929  0.76609365     0.04000
C1789       C  0.16761363  0.65711762  0.77579528    -0.12000
C1790       C  0.17683973  0.63177672  0.78493489     0.18900
C1791       C  0.20402924  0.62617329  0.78403260    -0.09000
C1792       C  0.22142127  0.64578664  0.77486194    -0.02000
H1793       H  0.14662598  0.66134352  0.77594347     0.05400
C1794       C  0.15849237  0.60977422  0.79290182     0.20900
H1795       H  0.24215150  0.64037373  0.77453671     0.10600
C1796       C  0.14547423  0.59450749  0.77258380    -0.15400
C1797       C  0.13829368  0.56710201  0.77659154     0.03600
C1798       C  0.14505921  0.55457252  0.80078114    -0.10700
C1799       C  0.15346838  0.57136923  0.82255638    -0.00700
C1800       C  0.15985189  0.59905498  0.81880307    -0.05900
H1801       H  0.14348604  0.60280853  0.75277760     0.06600
H1802       H  0.15828051  0.56238283  0.84146145     0.10000
Br1803     Br  0.21878982  0.59111537  0.79304301    -0.05600
Br1804     Br  0.17049231  0.71083287  0.75410757    -0.02500
Br1805     Br  0.12237760  0.54641634  0.74741925     0.00300
Br1806     Br  0.17451901  0.62017383  0.84829073    -0.04000
loop_ 
_geom_bond_atom_site_label_1 
_geom_bond_atom_site_label_2 
_geom_bond_distance 
_geom_bond_site_symmetry_2 
_ccdc_geom_bond_type 
O1            C9   1.277       .  A
O1          Co21   1.994       .  S
O2           C10   1.265       .  A
O2          Co22   2.025       .  S
O3           C11   1.268       .  A
O3          Co23   2.003       .  S
O4           C12   1.293       .  A
O4          Co24   1.979       .  S
O5           C11   1.266       .  A
O5          Co22   1.995       .  S
O6           C12   1.302       .  A
O6          Co21   2.006       .  S
O7           C10   1.251       .  A
O7          Co24   1.973       .  S
O8            C9   1.281       .  A
O8          Co23   2.005       .  S
C9         C1787   1.491       .  S
C10        C1687   1.495       .  S
C11        C1667   1.495       .  S
C12        C1747   1.493       .  S
O13          C26   1.252       .  A
O13         Co21   2.031       .  S
O14          C27   1.279       .  A
O14         Co22   2.008       .  S
O15          C28   1.272       .  A
O15         Co23   1.989       .  S
O16          C29   1.267       .  A
O16         Co24   2.007       .  S
O17          C29   1.260       .  A
O17         Co22   1.956       .  S
O18          C28   1.272       .  A
O18         Co21   2.000       .  S
O19          C26   1.243       .  A
O19         Co24   1.993       .  S
O20          C27   1.278       .  A
O20         Co23   1.989       .  S
Co21         O25   2.051       .  S
Co22         O25   2.035       .  S
Co23         O25   2.015       .  S
Co24         O25   1.989       .  S
C26        C1727   1.473       .  S
C27        C1647   1.470       .  S
C28        C1767   1.483       .  S
C29        C1718   1.485       .  S
O30          C38   1.279       .  A
O30         Co50   2.027       .  S
O31          C39   1.274       .  A
O31         Co51   1.980       .  S
O32          C40   1.299       .  A
O32         Co52   2.141       .  S
O33          C41   1.276       .  A
O33         Co53   2.002       .  S
O34          C40   1.269       .  A
O34         Co51   1.894       .  S
O35          C41   1.274       .  A
O35         Co50   1.997       .  S
O36          C39   1.275       .  A
O36         Co53   2.012       .  S
O37          C38   1.265       .  A
O37         Co52   1.979       .  S
C38        C1638   1.493       .  S
C39        C1527   1.482       .  S
C40        C1507   1.490       .  S
C41        C1567   1.482       .  S
O42          C55   1.278       .  A
O42         Co50   2.023       .  S
O43          C56   1.293       .  A
O43         Co51   2.119       .  S
O44          C57   1.277       .  A
O44         Co52   1.997       .  S
O45          C58   1.278       .  A
O45         Co53   2.026       .  S
O46          C58   1.268       .  A
O46         Co51   1.990       .  S
O47          C57   1.276       .  A
O47         Co50   1.997       .  S
O48          C55   1.278       .  A
O48         Co53   1.994       .  S
O49          C56   1.270       .  A
O49         Co52   1.900       .  S
Co50         O54   2.027       .  S
Co51         O54   1.971       .  S
Co52         O54   1.976       .  S
Co53         O54   2.027       .  S
C55        C1587   1.486       .  S
C56        C1487   1.467       .  S
C57        C1607   1.476       .  S
C58        C1547   1.502       .  S
O59          C67   1.269       .  A
O59         Co79   1.986       .  S
O60          C68   1.269       .  A
O60         Co80   1.897       .  S
O61          C69   1.273       .  A
O61         Co81   2.000       .  S
O62          C70   1.272       .  A
O62         Co82   1.997       .  S
O63          C69   1.276       .  A
O63         Co80   1.993       .  S
O64          C70   1.273       .  A
O64         Co79   1.998       .  S
O65          C68   1.300       .  A
O65         Co82   2.139       .  S
O66          C67   1.277       .  A
O66         Co81   2.016       .  S
C67        C1447   1.497       .  S
C68        C1367   1.495       .  S
C69        C1347   1.479       .  S
C70        C1427   1.479       .  S
O71          C84   1.274       .  A
O71         Co79   1.997       .  S
O72          C85   1.267       .  A
O72         Co80   1.995       .  S
O73          C86   1.272       .  A
O73         Co81   1.987       .  S
O74          C87   1.277       .  A
O74         Co82   1.922       .  S
O75          C87   1.297       .  A
O75         Co80   2.131       .  S
O76          C86   1.279       .  A
O76         Co79   2.027       .  S
O77          C84   1.280       .  A
O77         Co82   2.004       .  S
O78          C85   1.275       .  A
O78         Co81   2.004       .  S
Co79         O83   2.016       .  S
Co80         O83   1.967       .  S
Co81         O83   2.021       .  S
Co82         O83   1.987       .  S
C84        C1407   1.492       .  S
C85        C1327   1.494       .  S
C86        C1467   1.479       .  S
C87        C1387   1.508       .  S
C88        C1318   1.488       .  S
C88          C89   1.423   1_554  A
C88          C93   1.421   1_545  A
C89        C1258   1.510       .  S
C89          C90   1.427       .  A
C90        C1278   1.503       .  S
C90          C91   1.432       .  A
C91        C1207   1.491   1_545  S
C91          C92   1.419   1_545  A
C92        C1227   1.503       .  S
C92          C93   1.412   1_556  A
C93        C1287   1.493       .  S
N94          C98   1.358   1_565  A
N94          C95   1.357       .  A
N94        C1307   1.435       .  S
C95        C1358   1.478       .  S
C95          C96   1.381       .  A
C96          C97   1.371   1_565  A
C96          H99   1.083       .  S
C97          C98   1.383       .  A
C97         H100   1.082       .  S
C98        C1187   1.484       .  S
N101        C105   1.367       .  A
N101        C102   1.368   1_554  A
N101       C1247   1.458       .  S
C102       C1538   1.473       .  S
C102        C103   1.381   1_556  A
C103        C104   1.361       .  A
C103        H106   1.082   1_554  S
C104        C105   1.379       .  A
C104        H107   1.083       .  S
C105       C1167   1.486       .  S
N108        C112   1.358       .  A
N108        C109   1.347       .  A
N108       C1218   1.439       .  S
C109       C1147   1.463       .  S
C109        C110   1.381       .  A
C110        C111   1.369       .  A
C110        H113   1.082       .  S
C111        C112   1.382       .  A
C111        H114   1.082       .  S
C112       C1707   1.474   1_545  S
N115        C119   1.366       .  A
N115        C116   1.368       .  A
N115       C1267   1.459       .  S
C116       C1127   1.484       .  S
C116        C117   1.384       .  A
C117        C118   1.364       .  A
C117        H120   1.082       .  S
C118        C119   1.377       .  A
C118        H121   1.083       .  S
C119       C1578   1.478       .  S
N122        C126   1.356       .  A
N122        C123   1.363       .  A
N122       C1298   1.439       .  S
C123       C1107   1.485       .  S
C123        C124   1.384       .  A
C124        C125   1.369       .  A
C124        H127   1.083       .  S
C125        C126   1.380       .  A
C125        H128   1.082       .  S
C126       C1458   1.478       .  S
N129        C133   1.360       .  A
N129        C130   1.366   1_556  A
N129       C1238   1.443       .  S
C130       C1087   1.487       .  S
C130        C131   1.384   1_554  A
C131        C132   1.367       .  A
C131        H134   1.082   1_556  S
C132        C133   1.379       .  A
C132        H135   1.082       .  S
C133       C1658   1.477       .  S
C136       C1047   1.513       .  S
C136        C137   1.428       .  A
C136        C141   1.430   1_556  A
C137       C1067   1.518       .  S
C137        C138   1.428   1_655  A
C138        C967   1.487       .  S
C138        C139   1.430       .  A
C139        C987   1.512       .  S
C139        C140   1.424   1_456  A
C140       C1007   1.508       .  S
C140        C141   1.428       .  A
C141       C1027   1.492       .  S
N142        C146   1.371   1_556  A
N142        C143   1.371       .  A
N142        C998   1.467   1_556  S
C143       C1678   1.485       .  S
C143        C144   1.379       .  A
C144        C145   1.362   1_556  A
C144        H147   1.083       .  S
C145        C146   1.383       .  A
C145        H148   1.082       .  S
C146        C947   1.498       .  S
N149        C153   1.354       .  A
N149        C150   1.357       .  A
N149        C978   1.435       .  S
C150       C1798   1.480       .  S
C150        C151   1.385       .  A
C151        C152   1.370       .  A
C151        H154   1.083       .  S
C152        C153   1.380       .  A
C152        H155   1.083       .  S
C153        C927   1.474       .  S
N156        C160   1.361       .  A
N156        C157   1.364   1_655  A
N156       C1018   1.443   1_655  S
C157        C907   1.480       .  S
C157        C158   1.381       .  A
C158        C159   1.367   1_455  A
C158        H161   1.082       .  S
C159        C160   1.381       .  A
C159        H162   1.083       .  S
C160       C1378   1.478       .  S
N163        C167   1.358       .  A
N163        C164   1.352       .  A
N163       C1038   1.434       .  S
C164        C898   1.475       .  S
C164        C165   1.382       .  A
C165        C166   1.373       .  A
C165        H168   1.083       .  S
C166        C167   1.383       .  A
C166        H169   1.083       .  S
C167       C1438   1.482       .  S
N170        C174   1.371       .  A
N170        C171   1.371       .  A
N170       C1078   1.470       .  S
C171       C1498   1.479       .  S
C171        C172   1.380       .  A
C172        C173   1.356       .  A
C172        H175   1.083       .  S
C173        C174   1.381       .  A
C173        H176   1.082       .  S
C174        C867   1.483   1_655  S
N177        C181   1.359       .  A
N177        C178   1.365   1_556  A
N177       C1058   1.444       .  S
C178        C847   1.489       .  S
C178        C179   1.384   1_554  A
C179        C180   1.369       .  A
C179        H182   1.083   1_556  S
C180        C181   1.380       .  A
C180        H183   1.082       .  S
C181       C1558   1.482       .  S
C184        C807   1.507       .  S
C184        C185   1.426       .  A
C184        C189   1.424       .  A
C185        C838   1.511       .  S
C185        C186   1.434       .  A
C186        C747   1.492       .  S
C186        C187   1.429       .  A
C187        C727   1.517       .  S
C187        C188   1.423       .  A
C188        C767   1.494       .  S
C188        C189   1.423       .  A
C189        C798   1.498       .  S
N190        C194   1.371       .  A
N190        C191   1.370       .  A
N190        C827   1.456       .  S
C191       C1598   1.487       .  S
C191        C192   1.378       .  A
C192        C193   1.364       .  A
C192        H195   1.083       .  S
C193        C194   1.383       .  A
C193        H196   1.083       .  S
C194        C718   1.488       .  S
N197        C201   1.367       .  A
N197        C198   1.368       .  A
N197        C738   1.454       .  S
C198        C687   1.485       .  S
C198        C199   1.381       .  A
C199        C200   1.365       .  A
C199        H202   1.083       .  S
C200        C201   1.381       .  A
C200        H203   1.082       .  S
C201       C1738   1.483       .  S
N204        C208   1.360       .  A
N204        C205   1.360       .  A
N204        C787   1.447       .  S
C205       C1418   1.479       .  S
C205        C206   1.384       .  A
C206        C207   1.369       .  A
C206        H209   1.083       .  S
C207        C208   1.380       .  A
C207        H210   1.082       .  S
C208        C667   1.486       .  S
N211        C215   1.362       .  A
N211        C212   1.360       .  A
N211        C778   1.441       .  S
C212        C647   1.477       .  S
C212        C213   1.381       .  A
C213        C214   1.366       .  A
C213        H216   1.083       .  S
C214        C215   1.381       .  A
C214        H217   1.083       .  S
C215       C1478   1.481       .  S
N218        C222   1.355       .  A
N218        C219   1.358       .  A
N218        C758   1.434       .  S
C219        C627   1.485       .  S
C219        C220   1.385       .  A
C220        C221   1.371       .  A
C220        H223   1.082       .  S
C221        C222   1.380       .  A
C221        H224   1.083       .  S
C222       C1778   1.477       .  S
N225        C229   1.362       .  A
N225        C226   1.362       .  A
N225        C818   1.444       .  S
C226       C1618   1.478       .  S
C226        C227   1.381       .  A
C227        C228   1.366       .  A
C227        H230   1.083       .  S
C228        C229   1.380       .  A
C228        H231   1.083       .  S
C229        C618   1.481       .  S
C232        C558   1.497       .  S
C232        C233   1.427   1_645  A
C232        C237   1.429       .  A
C233        C567   1.509       .  S
C233        C234   1.429       .  A
C234        C598   1.509       .  S
C234        C235   1.424   1_455  A
C235        C487   1.504       .  S
C235        C236   1.430       .  A
C236        C507   1.504       .  S
C236        C237   1.430   1_565  A
C237        C527   1.510       .  S
N238        C242   1.366       .  A
N238        C239   1.369   1_655  A
N238        C547   1.459       .  S
C239        C467   1.481       .  S
C239        C240   1.381       .  A
C240        C241   1.367   1_455  A
C240        H243   1.083       .  S
C241        C242   1.381       .  A
C241        H244   1.082       .  S
C242       C1518   1.485       .  S
N245        C249   1.372       .  A
N245        C246   1.373       .  A
N245        C578   1.462       .  S
C246       C1698   1.482       .  S
C246        C247   1.380       .  A
C247        C248   1.359       .  A
C247        H250   1.082       .  S
C248        C249   1.378       .  A
C248        H251   1.083       .  S
C249        C447   1.483   1_565  S
N252        C256   1.361       .  A
N252        C253   1.360       .  A
N252        C587   1.444       .  S
C253       C1758   1.476       .  S
C253        C254   1.382       .  A
C254        C255   1.364       .  A
C254        H257   1.082       .  S
C255        C256   1.382       .  A
C255        H258   1.082       .  S
C256        C438   1.476       .  S
N259        C263   1.366       .  A
N259        C260   1.366       .  A
N259        C538   1.446       .  S
C260        C407   1.492       .  S
C260        C261   1.382       .  A
C261        C262   1.367       .  A
C261        H264   1.083       .  S
C262        C263   1.381       .  A
C262        H265   1.082       .  S
C263       C1627   1.486       .  S
N266        C270   1.358   1_545  A
N266        C267   1.363       .  A
N266        C518   1.441       .  S
C267        C387   1.482       .  S
C267        C268   1.383       .  A
C268        C269   1.369   1_545  A
C268        H271   1.082       .  S
C269        C270   1.380       .  A
C269        H272   1.083       .  S
C270       C1338   1.479       .  S
N273        C277   1.359       .  A
N273        C274   1.367   1_455  A
N273        C498   1.453       .  S
C274       C1398   1.496       .  S
C274        C275   1.389   1_655  A
C275        C276   1.367       .  A
C275        H278   1.083   1_455  S
C276        C277   1.377       .  A
C276        H279   1.082       .  S
C277        C378   1.480       .  S
O280        C288   1.271       .  A
O280       Co300   1.980       .  S
O281        C289   1.266       .  A
O281       Co301   1.971       .  S
O282        C290   1.269       .  A
O282       Co302   2.005       .  S
O283        C291   1.268       .  A
O283       Co303   1.993       .  S
O284        C290   1.272       .  A
O284       Co301   1.997       .  S
O285        C291   1.275       .  A
O285       Co300   2.012       .  S
O286        C289   1.277       .  A
O286       Co303   2.032       .  S
O287        C288   1.275       .  A
O287       Co302   2.022       .  S
C288        C458   1.479       .  S
C289        C638   1.485       .  S
C290        C478   1.489       .  S
C291        C707   1.501       .  S
O292        C305   1.270       .  A
O292       Co300   2.009       .  S
O293        C306   1.269       .  A
O293       Co301   2.002       .  S
O294        C307   1.265       .  A
O294       Co302   1.967       .  S
O295        C308   1.263       .  A
O295       Co303   1.968       .  S
O296        C308   1.275       .  A
O296       Co301   2.021       .  S
O297        C307   1.270       .  A
O297       Co300   2.015       .  S
O298        C305   1.273       .  A
O298       Co303   1.992       .  S
O299        C306   1.270       .  A
O299       Co302   1.989       .  S
Co300       O304   2.099       .  S
Co301       O304   2.095       .  S
Co302       O304   2.098       .  S
Co303       O304   2.090       .  S
C305       C1138   1.482       .  S
C306        C878   1.482       .  S
C307       C1158   1.481       .  S
C308        C938   1.488       .  S
O309        C317   1.280       .  A
O309       Co329   2.029       .  S
O310        C318   1.266       .  A
O310       Co330   1.972       .  S
O311        C319   1.269       .  A
O311       Co331   1.906       .  S
O312        C320   1.276       .  A
O312       Co332   2.006       .  S
O313        C319   1.295       .  A
O313       Co330   2.134       .  S
O314        C320   1.276       .  A
O314       Co329   2.006       .  S
O315        C318   1.275       .  A
O315       Co332   2.016       .  S
O316        C317   1.273       .  A
O316       Co331   1.985       .  S
C317        C398   1.478       .  S
C318        C887   1.490       .  S
C319        C858   1.482       .  S
C320        C418   1.503       .  S
O321        C334   1.280       .  A
O321       Co329   2.010       .  S
O322        C335   1.272       .  A
O322       Co330   1.906       .  S
O323        C336   1.268       .  A
O323       Co331   1.997       .  S
O324        C337   1.279       .  A
O324       Co332   2.023       .  S
O325        C337   1.277       .  A
O325       Co330   1.996       .  S
O326        C336   1.277       .  A
O326       Co329   2.022       .  S
O327        C334   1.273       .  A
O327       Co332   2.007       .  S
O328        C335   1.295       .  A
O328       Co331   2.121       .  S
Co329       O333   2.026       .  S
Co330       O333   1.976       .  S
Co331       O333   1.977       .  S
Co332       O333   2.028       .  S
C334        C607   1.505       .  S
C335       C1178   1.479       .  S
C336       C1198   1.501       .  S
C337        C678   1.483       .  S
O338        C346   1.296       .  A
O338       Co358   2.010       .  S
O339        C347   1.259       .  A
O339       Co359   2.008       .  S
O340        C348   1.257       .  A
O340       Co360   1.978       .  S
O341        C349   1.270       .  A
O341       Co361   1.861       .  S
O342        C348   1.274       .  A
O342       Co359   2.038       .  S
O343        C349   1.311       .  A
O343       Co358   2.131       .  S
O344        C347   1.256       .  A
O344       Co361   1.985       .  S
O345        C346   1.283       .  A
O345       Co360   1.956       .  S
C346        C658   1.482       .  S
C347        C918   1.499       .  S
C348        C698   1.500       .  S
C349        C958   1.473       .  S
O350        C363   1.298       .  A
O350       Co358   2.075       .  S
O351        C364   1.259       .  A
O351       Co359   1.959       .  S
O352        C365   1.250       .  A
O352       Co360   1.974       .  S
O353        C366   1.284       .  A
O353       Co361   2.041       .  S
O354        C366   1.266       .  A
O354       Co359   1.960       .  S
O355        C365   1.283       .  A
O355       Co358   2.059       .  S
O356        C363   1.269       .  A
O356       Co361   1.975       .  S
O357        C364   1.272       .  A
O357       Co360   2.024       .  S
Co358       O362   2.055       .  S
Co359       O362   2.035       .  S
Co360       O362   1.983       .  S
Co361       O362   1.891       .  S
C363       C1098   1.493       .  S
C364        C427   1.486       .  S
C365       C1118   1.472       .  S
C366        C367   1.482       .  S
C367        C368   1.415       .  A
C367        C372   1.405       .  A
C368        C369   1.400       .  A
C368       Br384   1.920       .  S
C369        C370   1.400       .  A
C369        H373   1.084       .  S
C370        C374   1.485       .  S
C370        C371   1.411       .  A
C371        C372   1.403       .  A
C371       Br383   1.919       .  S
C372        H375   1.084       .  S
C374        C376   1.402       .  A
C374        C380   1.412       .  A
C376        C377   1.403       .  A
C376        H381   1.084       .  S
C377        C378   1.413       .  A
C377       Br385   1.918       .  S
C378        C379   1.402       .  A
C379        C380   1.400       .  A
C379        H382   1.085       .  S
C380       Br386   1.921       .  S
C387        C388   1.413       .  A
C387        C392   1.404       .  A
C388        C389   1.401       .  A
C388       Br404   1.918       .  S
C389        C390   1.400       .  A
C389        H393   1.083       .  S
C390        C394   1.486       .  S
C390        C391   1.411       .  A
C391        C392   1.404       .  A
C391       Br403   1.916       .  S
C392        H395   1.083       .  S
C394        C396   1.402       .  A
C394        C400   1.409       .  A
C396        C397   1.398       .  A
C396        H401   1.084       .  S
C397        C398   1.407       .  A
C397       Br405   1.917       .  S
C398        C399   1.404       .  A
C399        C400   1.406       .  A
C399        H402   1.081       .  S
C400       Br406   1.913       .  S
C407        C408   1.414       .  A
C407        C412   1.405       .  A
C408        C409   1.399       .  A
C408       Br424   1.917       .  S
C409        C410   1.400       .  A
C409        H413   1.085       .  S
C410        C414   1.491       .  S
C410        C411   1.412       .  A
C411        C412   1.405       .  A
C411       Br423   1.914       .  S
C412        H415   1.082       .  S
C414        C416   1.409       .  A
C414        C420   1.408       .  A
C416        C417   1.414       .  A
C416        H421   1.083       .  S
C417        C418   1.418       .  A
C417       Br425   1.918       .  S
C418        C419   1.409       .  A
C419        C420   1.392       .  A
C419        H422   1.083       .  S
C420       Br426   1.924       .  S
C427        C428   1.412       .  A
C427        C432   1.412       .  A
C428        C429   1.402       .  A
C428       Br444   1.919       .  S
C429        C430   1.405       .  A
C429        H433   1.083       .  S
C430        C434   1.476       .  S
C430        C431   1.401       .  A
C431        C432   1.396       .  A
C431       Br443   1.918       .  S
C432        H435   1.083       .  S
C434        C436   1.400       .  A
C434        C440   1.410       .  A
C436        C437   1.400       .  A
C436        H441   1.084       .  S
C437        C438   1.411       .  A
C437       Br445   1.918       .  S
C438        C439   1.401       .  A
C439        C440   1.398       .  A
C439        H442   1.083       .  S
C440       Br446   1.920       .  S
C447        C448   1.409       .  A
C447        C452   1.407       .  A
C448        C449   1.405       .  A
C448       Br464   1.917       .  S
C449        C450   1.405       .  A
C449        H453   1.086       .  S
C450        C454   1.479       .  S
C450        C451   1.404       .  A
C451        C452   1.396       .  A
C451       Br463   1.919       .  S
C452        H455   1.085       .  S
C454        C456   1.400       .  A
C454        C460   1.407       .  A
C456        C457   1.395       .  A
C456        H461   1.068       .  S
C457        C458   1.413       .  A
C457       Br465   1.923       .  S
C458        C459   1.408       .  A
C459        C460   1.407       .  A
C459        H462   1.059       .  S
C460       Br466   1.914       .  S
C467        C468   1.409       .  A
C467        C472   1.401       .  A
C468        C469   1.408       .  A
C468       Br484   1.916       .  S
C469        C470   1.410       .  A
C469        H473   1.083       .  S
C470        C474   1.492       .  S
C470        C471   1.411       .  A
C471        C472   1.394       .  A
C471       Br483   1.913       .  S
C472        H475   1.084       .  S
C474        C476   1.410       .  A
C474        C480   1.408       .  A
C476        C477   1.410       .  A
C476        H481   1.082       .  S
C477        C478   1.411       .  A
C477       Br485   1.917       .  S
C478        C479   1.407       .  A
C479        C480   1.396       .  A
C479        H482   1.082       .  S
C480       Br486   1.921       .  S
C487        C488   1.413   1_655  A
C487        C492   1.405       .  A
C488        C489   1.407       .  A
C488       Br504   1.915       .  S
C489        C490   1.406   1_455  A
C489        H493   1.083       .  S
C490        C494   1.498       .  S
C490        C491   1.412       .  A
C491        C492   1.403       .  A
C491       Br503   1.918       .  S
C492        H495   1.083       .  S
C494        C496   1.402   1_655  A
C494        C500   1.413       .  A
C496        C497   1.402       .  A
C496        H501   1.083       .  S
C497        C498   1.421       .  A
C497       Br505   1.921       .  S
C498        C499   1.405   1_455  A
C499        C500   1.411       .  A
C499        H502   1.082       .  S
C500       Br506   1.916       .  S
C507        C508   1.417   1_565  A
C507        C512   1.407       .  A
C508        C509   1.402       .  A
C508       Br524   1.918       .  S
C509        C510   1.402   1_545  A
C509        H513   1.083       .  S
C510        C514   1.486   1_565  S
C510        C511   1.408       .  A
C511        C512   1.400       .  A
C511       Br523   1.919       .  S
C512        H515   1.081       .  S
C514        C516   1.402       .  A
C514        C520   1.412       .  A
C516        C517   1.399       .  A
C516        H521   1.084       .  S
C517        C518   1.409       .  A
C517       Br525   1.911       .  S
C518        C519   1.403       .  A
C519        C520   1.403       .  A
C519        H522   1.083       .  S
C520       Br526   1.918       .  S
C527        C528   1.411       .  A
C527        C532   1.407       .  A
C528        C529   1.406       .  A
C528       Br544   1.916   1_545  S
C529        C530   1.409       .  A
C529        H533   1.083       .  S
C530        C534   1.497       .  S
C530        C531   1.409       .  A
C531        C532   1.401       .  A
C531       Br543   1.920       .  S
C532        H535   1.078       .  S
C534        C536   1.409       .  A
C534        C540   1.410       .  A
C536        C537   1.408       .  A
C536        H541   1.084       .  S
C537        C538   1.408       .  A
C537       Br545   1.911       .  S
C538        C539   1.404       .  A
C539        C540   1.398       .  A
C539        H542   1.084       .  S
C540       Br546   1.919       .  S
C547        C548   1.409       .  A
C547        C552   1.410       .  A
C548        C549   1.399       .  A
C548       Br564   1.916   1_655  S
C549        C550   1.409       .  A
C549        H553   1.079   1_655  S
C550        C554   1.509       .  S
C550        C551   1.418       .  A
C551        C552   1.402       .  A
C551       Br563   1.923       .  S
C552        H555   1.080       .  S
C554        C556   1.411       .  A
C554        C560   1.420       .  A
C556        C557   1.400       .  A
C556        H561   1.081       .  S
C557        C558   1.407       .  A
C557       Br565   1.921   1_545  S
C558        C559   1.401   1_655  A
C559        C560   1.403   1_455  A
C559        H562   1.081       .  S
C560       Br566   1.922       .  S
C567        C568   1.409       .  A
C567        C572   1.405       .  A
C568        C569   1.403       .  A
C568       Br584   1.920   1_565  S
C569        C570   1.412       .  A
C569        H573   1.078       .  S
C570        C574   1.512       .  S
C570        C571   1.416       .  A
C571        C572   1.404       .  A
C571       Br583   1.923       .  S
C572        H575   1.075       .  S
C574        C576   1.407       .  A
C574        C580   1.418       .  A
C576        C577   1.402       .  A
C576        H581   1.079   1_565  S
C577        C578   1.416       .  A
C577       Br585   1.917       .  S
C578        C579   1.409       .  A
C579        C580   1.407       .  A
C579        H582   1.074       .  S
C580       Br586   1.923       .  S
C587        C588   1.409       .  A
C587        C592   1.401       .  A
C588        C589   1.408       .  A
C588       Br604   1.913       .  S
C589        C590   1.406       .  A
C589        H593   1.084       .  S
C590        C594   1.493       .  S
C590        C591   1.412       .  A
C591        C592   1.399       .  A
C591       Br603   1.915       .  S
C592        H595   1.084       .  S
C594        C596   1.407       .  A
C594        C600   1.408       .  A
C596        C597   1.409       .  A
C596        H601   1.082       .  S
C597        C598   1.413       .  A
C597       Br605   1.917       .  S
C598        C599   1.405       .  A
C599        C600   1.399       .  A
C599        H602   1.077       .  S
C600       Br606   1.918       .  S
C607        C608   1.426       .  A
C607        C612   1.413       .  A
C608        C609   1.395       .  A
C608       Br624   1.928       .  S
C609        C610   1.398       .  A
C609        H613   1.084       .  S
C610        C614   1.494       .  S
C610        C611   1.410       .  A
C611        C612   1.412       .  A
C611       Br623   1.916       .  S
C612        H615   1.082       .  S
C614        C616   1.408       .  A
C614        C620   1.411       .  A
C616        C617   1.403       .  A
C616        H621   1.085       .  S
C617        C618   1.406       .  A
C617       Br625   1.916       .  S
C618        C619   1.407       .  A
C619        C620   1.404       .  A
C619        H622   1.085       .  S
C620       Br626   1.919       .  S
C627        C628   1.412       .  A
C627        C632   1.403       .  A
C628        C629   1.402       .  A
C628       Br644   1.919       .  S
C629        C630   1.401       .  A
C629        H633   1.084       .  S
C630        C634   1.482       .  S
C630        C631   1.409       .  A
C631        C632   1.398       .  A
C631       Br643   1.916       .  S
C632        H635   1.082       .  S
C634        C636   1.403       .  A
C634        C640   1.408       .  A
C636        C637   1.407       .  A
C636        H641   1.082       .  S
C637        C638   1.416       .  A
C637       Br645   1.918       .  S
C638        C639   1.404       .  A
C639        C640   1.393       .  A
C639        H642   1.082       .  S
C640       Br646   1.923       .  S
C647        C648   1.409       .  A
C647        C652   1.406       .  A
C648        C649   1.399       .  A
C648       Br664   1.912       .  S
C649        C650   1.402       .  A
C649        H653   1.084       .  S
C650        C654   1.481       .  S
C650        C651   1.407       .  A
C651        C652   1.401       .  A
C651       Br663   1.918       .  S
C652        H655   1.083       .  S
C654        C656   1.400       .  A
C654        C660   1.406       .  A
C656        C657   1.394       .  A
C656        H661   1.085       .  S
C657        C658   1.416       .  A
C657       Br665   1.923       .  S
C658        C659   1.407       .  A
C659        C660   1.404       .  A
C659        H662   1.083       .  S
C660       Br666   1.915       .  S
C667        C668   1.415       .  A
C667        C672   1.403       .  A
C668        C669   1.407       .  A
C668       Br684   1.918       .  S
C669        C670   1.404       .  A
C669        H673   1.083       .  S
C670        C674   1.486       .  S
C670        C671   1.409       .  A
C671        C672   1.397       .  A
C671       Br683   1.919       .  S
C672        H675   1.083       .  S
C674        C676   1.400       .  A
C674        C680   1.409       .  A
C676        C677   1.398       .  A
C676        H681   1.083       .  S
C677        C678   1.414       .  A
C677       Br685   1.918       .  S
C678        C679   1.405       .  A
C679        C680   1.408       .  A
C679        H682   1.080       .  S
C680       Br686   1.915       .  S
C687        C688   1.413       .  A
C687        C692   1.407       .  A
C688        C689   1.405       .  A
C688       Br704   1.919       .  S
C689        C690   1.405       .  A
C689        H693   1.084       .  S
C690        C694   1.497       .  S
C690        C691   1.410       .  A
C691        C692   1.407       .  A
C691       Br703   1.917       .  S
C692        H695   1.084       .  S
C694        C696   1.404       .  A
C694        C700   1.412       .  A
C696        C697   1.409       .  A
C696        H701   1.084       .  S
C697        C698   1.420       .  A
C697       Br705   1.920       .  S
C698        C699   1.407       .  A
C699        C700   1.404       .  A
C699        H702   1.084       .  S
C700       Br706   1.920       .  S
C707        C708   1.413       .  A
C707        C712   1.411       .  A
C708        C709   1.414       .  A
C708       Br724   1.916       .  S
C709        C710   1.413       .  A
C709        H713   1.082       .  S
C710        C714   1.499       .  S
C710        C711   1.409       .  A
C711        C712   1.392       .  A
C711       Br723   1.925       .  S
C712        H715   1.083       .  S
C714        C716   1.413       .  A
C714        C720   1.412       .  A
C716        C717   1.409       .  A
C716        H721   1.082       .  S
C717        C718   1.408       .  A
C717       Br725   1.917       .  S
C718        C719   1.405       .  A
C719        C720   1.397       .  A
C719        H722   1.083       .  S
C720       Br726   1.921       .  S
C727        C728   1.417       .  A
C727        C732   1.407       .  A
C728        C729   1.409       .  A
C728       Br744   1.914       .  S
C729        C730   1.407       .  A
C729        H733   1.084       .  S
C730        C734   1.508       .  S
C730        C731   1.414       .  A
C731        C732   1.408       .  A
C731       Br743   1.918       .  S
C732        H735   1.084       .  S
C734        C736   1.406       .  A
C734        C740   1.418       .  A
C736        C737   1.405       .  A
C736        H741   1.085       .  S
C737        C738   1.413       .  A
C737       Br745   1.914       .  S
C738        C739   1.404       .  A
C739        C740   1.412       .  A
C739        H742   1.084       .  S
C740       Br746   1.919       .  S
C747        C748   1.413       .  A
C747        C752   1.405       .  A
C748        C749   1.396       .  A
C748       Br764   1.921       .  S
C749        C750   1.401       .  A
C749        H753   1.084       .  S
C750        C754   1.474       .  S
C750        C751   1.406       .  A
C751        C752   1.395       .  A
C751       Br763   1.919       .  S
C752        H755   1.083       .  S
C754        C756   1.405       .  A
C754        C760   1.407       .  A
C756        C757   1.400       .  A
C756        H761   1.082       .  S
C757        C758   1.407       .  A
C757       Br765   1.915       .  S
C758        C759   1.400       .  A
C759        C760   1.393       .  A
C759        H762   1.082       .  S
C760       Br766   1.921       .  S
C767        C768   1.408       .  A
C767        C772   1.400       .  A
C768        C769   1.402       .  A
C768       Br784   1.913       .  S
C769        C770   1.408       .  A
C769        H773   1.082       .  S
C770        C774   1.498       .  S
C770        C771   1.416       .  A
C771        C772   1.399       .  A
C771       Br783   1.921       .  S
C772        H775   1.082       .  S
C774        C776   1.405       .  A
C774        C780   1.418       .  A
C776        C777   1.396       .  A
C776        H781   1.084       .  S
C777        C778   1.406       .  A
C777       Br785   1.917       .  S
C778        C779   1.402       .  A
C779        C780   1.406       .  A
C779        H782   1.083       .  S
C780       Br786   1.920       .  S
C787        C788   1.416       .  A
C787        C792   1.404       .  A
C788        C789   1.399       .  A
C788       Br804   1.919       .  S
C789        C790   1.401       .  A
C789        H793   1.083       .  S
C790        C794   1.488       .  S
C790        C791   1.411       .  A
C791        C792   1.406       .  A
C791       Br803   1.915       .  S
C792        H795   1.082       .  S
C794        C796   1.404       .  A
C794        C800   1.410       .  A
C796        C797   1.401       .  A
C796        H801   1.083       .  S
C797        C798   1.410       .  A
C797       Br805   1.914       .  S
C798        C799   1.405       .  A
C799        C800   1.403       .  A
C799        H802   1.082       .  S
C800       Br806   1.917       .  S
C807        C808   1.415       .  A
C807        C812   1.405       .  A
C808        C809   1.406       .  A
C808       Br824   1.915       .  S
C809        C810   1.406       .  A
C809        H813   1.084       .  S
C810        C814   1.495       .  S
C810        C811   1.410       .  A
C811        C812   1.401       .  A
C811       Br823   1.918       .  S
C812        H815   1.084       .  S
C814        C816   1.410       .  A
C814        C820   1.411       .  A
C816        C817   1.407       .  A
C816        H821   1.083       .  S
C817        C818   1.406       .  A
C817       Br825   1.913       .  S
C818        C819   1.404       .  A
C819        C820   1.401       .  A
C819        H822   1.083       .  S
C820       Br826   1.920       .  S
C827        C828   1.414       .  A
C827        C832   1.406       .  A
C828        C829   1.408       .  A
C828       Br844   1.915       .  S
C829        C830   1.410       .  A
C829        H833   1.082       .  S
C830        C834   1.503       .  S
C830        C831   1.413       .  A
C831        C832   1.398       .  A
C831       Br843   1.923       .  S
C832        H835   1.076       .  S
C834        C836   1.408       .  A
C834        C840   1.415       .  A
C836        C837   1.401       .  A
C836        H841   1.083       .  S
C837        C838   1.414       .  A
C837       Br845   1.921       .  S
C838        C839   1.408       .  A
C839        C840   1.403       .  A
C839        H842   1.083       .  S
C840       Br846   1.919       .  S
C847        C848   1.414       .  A
C847        C852   1.404       .  A
C848        C849   1.404       .  A
C848       Br864   1.919       .  S
C849        C850   1.403       .  A
C849        H853   1.084       .  S
C850        C854   1.491       .  S
C850        C851   1.411       .  A
C851        C852   1.404       .  A
C851       Br863   1.916       .  S
C852        H855   1.084       .  S
C854        C856   1.404       .  A
C854        C860   1.413       .  A
C856        C857   1.406       .  A
C856        H861   1.084       .  S
C857        C858   1.411       .  A
C857       Br865   1.916       .  S
C858        C859   1.401       .  A
C859        C860   1.403       .  A
C859        H862   1.084       .  S
C860       Br866   1.919       .  S
C867        C868   1.417       .  A
C867        C872   1.402       .  A
C868        C869   1.395       .  A
C868       Br884   1.924       .  S
C869        C870   1.398       .  A
C869        H873   1.082       .  S
C870        C874   1.477       .  S
C870        C871   1.409       .  A
C871        C872   1.401       .  A
C871       Br883   1.914       .  S
C872        H875   1.082       .  S
C874        C876   1.396       .  A
C874        C880   1.408       .  A
C876        C877   1.391       .  A
C876        H881   1.087       .  S
C877        C878   1.415       .  A
C877       Br885   1.917       .  S
C878        C879   1.405       .  A
C879        C880   1.406       .  A
C879        H882   1.085       .  S
C880       Br886   1.915       .  S
C887        C888   1.413       .  A
C887        C892   1.407       .  A
C888        C889   1.410       .  A
C888       Br904   1.916       .  S
C889        C890   1.408       .  A
C889        H893   1.081       .  S
C890        C894   1.486       .  S
C890        C891   1.409       .  A
C891        C892   1.387       .  A
C891       Br903   1.926       .  S
C892        H895   1.082       .  S
C894        C896   1.407       .  A
C894        C900   1.410       .  A
C896        C897   1.400       .  A
C896        H901   1.084       .  S
C897        C898   1.407       .  A
C897       Br905   1.913       .  S
C898        C899   1.402       .  A
C899        C900   1.397       .  A
C899        H902   1.084       .  S
C900       Br906   1.918       .  S
C907        C908   1.408       .  A
C907        C912   1.407       .  A
C908        C909   1.402       .  A
C908       Br924   1.915       .  S
C909        C910   1.406       .  A
C909        H913   1.084       .  S
C910        C914   1.493       .  S
C910        C911   1.410       .  A
C911        C912   1.404       .  A
C911       Br923   1.918       .  S
C912        H915   1.084       .  S
C914        C916   1.406       .  A
C914        C920   1.407       .  A
C916        C917   1.405       .  A
C916        H921   1.084       .  S
C917        C918   1.418       .  A
C917       Br925   1.922       .  S
C918        C919   1.410       .  A
C919        C920   1.402       .  A
C919        H922   1.082       .  S
C920       Br926   1.919       .  S
C927        C928   1.408       .  A
C927        C932   1.401       .  A
C928        C929   1.396       .  A
C928       Br944   1.918       .  S
C929        C930   1.401       .  A
C929        H933   1.083       .  S
C930        C934   1.480       .  S
C930        C931   1.410       .  A
C931        C932   1.400       .  A
C931       Br943   1.912       .  S
C932        H935   1.082       .  S
C934        C936   1.404       .  A
C934        C940   1.409       .  A
C936        C937   1.405       .  A
C936        H941   1.084       .  S
C937        C938   1.418       .  A
C937       Br945   1.921       .  S
C938        C939   1.405       .  A
C939        C940   1.390       .  A
C939        H942   1.083       .  S
C940       Br946   1.924       .  S
C947        C948   1.413       .  A
C947        C952   1.411       .  A
C948        C949   1.405       .  A
C948       Br964   1.917       .  S
C949        C950   1.408       .  A
C949        H953   1.083       .  S
C950        C954   1.492       .  S
C950        C951   1.407       .  A
C951        C952   1.399       .  A
C951       Br963   1.921       .  S
C952        H955   1.083       .  S
C954        C956   1.410       .  A
C954        C960   1.412       .  A
C956        C957   1.407       .  A
C956        H961   1.082       .  S
C957        C958   1.408       .  A
C957       Br965   1.918       .  S
C958        C959   1.401       .  A
C959        C960   1.395       .  A
C959        H962   1.084       .  S
C960       Br966   1.921       .  S
C967        C968   1.412       .  A
C967        C972   1.402       .  A
C968        C969   1.397       .  A
C968       Br984   1.920       .  S
C969        C970   1.401       .  A
C969        H973   1.084       .  S
C970        C974   1.480       .  S
C970        C971   1.410       .  A
C971        C972   1.398       .  A
C971       Br983   1.917       .  S
C972        H975   1.083       .  S
C974        C976   1.403       .  A
C974        C980   1.411       .  A
C976        C977   1.398       .  A
C976        H981   1.083       .  S
C977        C978   1.406       .  A
C977       Br985   1.914       .  S
C978        C979   1.400       .  A
C979        C980   1.399       .  A
C979        H982   1.082       .  S
C980       Br986   1.920       .  S
C987        C988   1.414       .  A
C987        C992   1.408   1_556  A
C988        C989   1.403       .  A
C988      Br1004   1.907       .  S
C989        C990   1.405       .  A
C989        H993   1.084       .  S
C990        C994   1.503       .  S
C990        C991   1.414   1_556  A
C991        C992   1.404       .  A
C991      Br1003   1.920       .  S
C992        H995   1.084       .  S
C994        C996   1.404   1_556  A
C994       C1000   1.411       .  A
C996        C997   1.407       .  A
C996       H1001   1.082       .  S
C997        C998   1.426       .  A
C997      Br1005   1.919       .  S
C998        C999   1.411   1_554  A
C999       C1000   1.402       .  A
C999       H1002   1.071       .  S
C1000     Br1006   1.922       .  S
C1007      C1008   1.416       .  A
C1007      C1012   1.406   1_655  A
C1008      C1009   1.403       .  A
C1008     Br1024   1.913       .  S
C1009      C1010   1.404   1_655  A
C1009      H1013   1.083       .  S
C1010      C1014   1.500       .  S
C1010      C1011   1.413       .  A
C1011      C1012   1.407       .  A
C1011     Br1023   1.918       .  S
C1012      H1015   1.083       .  S
C1014      C1016   1.408   1_455  A
C1014      C1020   1.415       .  A
C1016      C1017   1.405       .  A
C1016      H1021   1.083       .  S
C1017      C1018   1.406   1_655  A
C1017     Br1025   1.913       .  S
C1018      C1019   1.402       .  A
C1019      C1020   1.405       .  A
C1019      H1022   1.082       .  S
C1020     Br1026   1.919       .  S
C1027      C1028   1.406       .  A
C1027      C1032   1.407       .  A
C1028      C1029   1.391       .  A
C1028     Br1044   1.914   1_554  S
C1029      C1030   1.404       .  A
C1029      H1033   1.083       .  S
C1030      C1034   1.490       .  S
C1030      C1031   1.414       .  A
C1031      C1032   1.406       .  A
C1031     Br1043   1.920       .  S
C1032      H1035   1.083       .  S
C1034      C1036   1.407       .  A
C1034      C1040   1.416       .  A
C1036      C1037   1.390       .  A
C1036      H1041   1.084       .  S
C1037      C1038   1.404       .  A
C1037     Br1045   1.919       .  S
C1038      C1039   1.402       .  A
C1039      C1040   1.405       .  A
C1039      H1042   1.082       .  S
C1040     Br1046   1.918       .  S
C1047      C1048   1.416       .  A
C1047      C1052   1.407   1_556  A
C1048      C1049   1.406       .  A
C1048     Br1064   1.913       .  S
C1049      C1050   1.404       .  A
C1049      H1053   1.082       .  S
C1050      C1054   1.493       .  S
C1050      C1051   1.409   1_556  A
C1051      C1052   1.401       .  A
C1051     Br1063   1.918       .  S
C1052      H1055   1.080       .  S
C1054      C1056   1.402       .  A
C1054      C1060   1.413       .  A
C1056      C1057   1.398       .  A
C1056      H1061   1.082       .  S
C1057      C1058   1.412       .  A
C1057     Br1065   1.918       .  S
C1058      C1059   1.404       .  A
C1059      C1060   1.410       .  A
C1059      H1062   1.084   1_556  S
C1060     Br1066   1.916   1_556  S
C1067      C1068   1.419       .  A
C1067      C1072   1.406       .  A
C1068      C1069   1.407       .  A
C1068     Br1084   1.912       .  S
C1069      C1070   1.408       .  A
C1069      H1073   1.082       .  S
C1070      C1074   1.510       .  S
C1070      C1071   1.417       .  A
C1071      C1072   1.402       .  A
C1071     Br1083   1.921       .  S
C1072      H1075   1.083   1_655  S
C1074      C1076   1.403   1_655  A
C1074      C1080   1.415       .  A
C1076      C1077   1.404       .  A
C1076      H1081   1.079       .  S
C1077      C1078   1.423   1_455  A
C1077     Br1085   1.917       .  S
C1078      C1079   1.413       .  A
C1079      C1080   1.408       .  A
C1079      H1082   1.056       .  S
C1080     Br1086   1.922       .  S
C1087      C1088   1.414       .  A
C1087      C1092   1.398       .  A
C1088      C1089   1.403       .  A
C1088     Br1104   1.920       .  S
C1089      C1090   1.405       .  A
C1089      H1093   1.084       .  S
C1090      C1094   1.501       .  S
C1090      C1091   1.415       .  A
C1091      C1092   1.402       .  A
C1091     Br1103   1.907       .  S
C1092      H1095   1.078       .  S
C1094      C1096   1.404       .  A
C1094      C1100   1.415       .  A
C1096      C1097   1.399       .  A
C1096      H1101   1.083       .  S
C1097      C1098   1.416       .  A
C1097     Br1105   1.923       .  S
C1098      C1099   1.407       .  A
C1099      C1100   1.410       .  A
C1099      H1102   1.083       .  S
C1100     Br1106   1.918       .  S
C1107      C1108   1.415       .  A
C1107      C1112   1.399       .  A
C1108      C1109   1.405       .  A
C1108     Br1124   1.919       .  S
C1109      C1110   1.403       .  A
C1109      H1113   1.085       .  S
C1110      C1114   1.485       .  S
C1110      C1111   1.409       .  A
C1111      C1112   1.395       .  A
C1111     Br1123   1.913       .  S
C1112      H1115   1.083       .  S
C1114      C1116   1.408       .  A
C1114      C1120   1.409       .  A
C1116      C1117   1.410       .  A
C1116      H1121   1.082       .  S
C1117      C1118   1.409       .  A
C1117     Br1125   1.916       .  S
C1118      C1119   1.398       .  A
C1119      C1120   1.391       .  A
C1119      H1122   1.083       .  S
C1120     Br1126   1.922       .  S
C1127      C1128   1.416       .  A
C1127      C1132   1.403       .  A
C1128      C1129   1.397       .  A
C1128     Br1144   1.923       .  S
C1129      C1130   1.399       .  A
C1129      H1133   1.085       .  S
C1130      C1134   1.480       .  S
C1130      C1131   1.411       .  A
C1131      C1132   1.402       .  A
C1131     Br1143   1.918       .  S
C1132      H1135   1.085       .  S
C1134      C1136   1.399       .  A
C1134      C1140   1.409       .  A
C1136      C1137   1.393       .  A
C1136      H1141   1.084       .  S
C1137      C1138   1.416       .  A
C1137     Br1145   1.925       .  S
C1138      C1139   1.406       .  A
C1139      C1140   1.406       .  A
C1139      H1142   1.083       .  S
C1140     Br1146   1.916       .  S
C1147      C1148   1.401       .  A
C1147      C1152   1.400       .  A
C1148      C1149   1.397       .  A
C1148     Br1164   1.916       .  S
C1149      C1150   1.408       .  A
C1149      H1153   1.085       .  S
C1150      C1154   1.473       .  S
C1150      C1151   1.411       .  A
C1151      C1152   1.394       .  A
C1151     Br1163   1.921       .  S
C1152      H1155   1.085       .  S
C1154      C1156   1.399       .  A
C1154      C1160   1.404       .  A
C1156      C1157   1.384       .  A
C1156      H1161   1.085       .  S
C1157      C1158   1.417       .  A
C1157     Br1165   1.927       .  S
C1158      C1159   1.412       .  A
C1159      C1160   1.404       .  A
C1159      H1162   1.083       .  S
C1160     Br1166   1.917       .  S
C1167      C1168   1.410       .  A
C1167      C1172   1.405       .  A
C1168      C1169   1.399       .  A
C1168     Br1184   1.922       .  S
C1169      C1170   1.405       .  A
C1169      H1173   1.082       .  S
C1170      C1174   1.496       .  S
C1170      C1171   1.414       .  A
C1171      C1172   1.408       .  A
C1171     Br1183   1.918       .  S
C1172      H1175   1.083       .  S
C1174      C1176   1.408       .  A
C1174      C1180   1.412       .  A
C1176      C1177   1.404       .  A
C1176      H1181   1.083       .  S
C1177      C1178   1.408       .  A
C1177     Br1185   1.918       .  S
C1178      C1179   1.404       .  A
C1179      C1180   1.401       .  A
C1179      H1182   1.084       .  S
C1180     Br1186   1.915       .  S
C1187      C1188   1.410       .  A
C1187      C1192   1.401       .  A
C1188      C1189   1.399       .  A
C1188     Br1204   1.920       .  S
C1189      C1190   1.404       .  A
C1189      H1193   1.083       .  S
C1190      C1194   1.500       .  S
C1190      C1191   1.417       .  A
C1191      C1192   1.407       .  A
C1191     Br1203   1.912       .  S
C1192      H1195   1.083       .  S
C1194      C1196   1.402       .  A
C1194      C1200   1.415       .  A
C1196      C1197   1.399       .  A
C1196      H1201   1.084       .  S
C1197      C1198   1.420       .  A
C1197     Br1205   1.921       .  S
C1198      C1199   1.408       .  A
C1199      C1200   1.412       .  A
C1199      H1202   1.084       .  S
C1200     Br1206   1.918       .  S
C1207      C1208   1.408   1_565  A
C1207      C1212   1.402       .  A
C1208      C1209   1.402       .  A
C1208     Br1224   1.918       .  S
C1209      C1210   1.407   1_545  A
C1209      H1213   1.084       .  S
C1210      C1214   1.483   1_565  S
C1210      C1211   1.408       .  A
C1211      C1212   1.393       .  A
C1211     Br1223   1.919       .  S
C1212      H1215   1.083       .  S
C1214      C1216   1.404       .  A
C1214      C1220   1.409       .  A
C1216      C1217   1.396       .  A
C1216      H1221   1.085       .  S
C1217      C1218   1.408       .  A
C1217     Br1225   1.918       .  S
C1218      C1219   1.404       .  A
C1219      C1220   1.401       .  A
C1219      H1222   1.082       .  S
C1220     Br1226   1.918   1_545  S
C1227      C1228   1.413       .  A
C1227      C1232   1.402   1_556  A
C1228      C1229   1.406       .  A
C1228     Br1244   1.920       .  S
C1229      C1230   1.407       .  A
C1229      H1233   1.084       .  S
C1230      C1234   1.496       .  S
C1230      C1231   1.411   1_556  A
C1231      C1232   1.402       .  A
C1231     Br1243   1.919       .  S
C1232      H1235   1.081       .  S
C1234      C1236   1.407   1_556  A
C1234      C1240   1.414       .  A
C1236      C1237   1.407       .  A
C1236      H1241   1.084       .  S
C1237      C1238   1.410   1_554  A
C1237     Br1245   1.917       .  S
C1238      C1239   1.401       .  A
C1239      C1240   1.403       .  A
C1239      H1242   1.083       .  S
C1240     Br1246   1.920       .  S
C1247      C1248   1.420   1_554  A
C1247      C1252   1.409       .  A
C1248      C1249   1.411       .  A
C1248     Br1264   1.915       .  S
C1249      C1250   1.405   1_556  A
C1249      H1253   1.084       .  S
C1250      C1254   1.493   1_554  S
C1250      C1251   1.406       .  A
C1251      C1252   1.399       .  A
C1251     Br1263   1.917       .  S
C1252      H1255   1.083       .  S
C1254      C1256   1.405       .  A
C1254      C1260   1.407   1_556  A
C1256      C1257   1.407       .  A
C1256      H1261   1.084       .  S
C1257      C1258   1.410       .  A
C1257     Br1265   1.915       .  S
C1258      C1259   1.408   1_556  A
C1259      C1260   1.404       .  A
C1259      H1262   1.080       .  S
C1260     Br1266   1.918       .  S
C1267      C1268   1.418       .  A
C1267      C1272   1.408       .  A
C1268      C1269   1.399       .  A
C1268     Br1284   1.915       .  S
C1269      C1270   1.404       .  A
C1269      H1273   1.083       .  S
C1270      C1274   1.502       .  S
C1270      C1271   1.415       .  A
C1271      C1272   1.401       .  A
C1271     Br1283   1.923       .  S
C1272      H1275   1.076       .  S
C1274      C1276   1.408       .  A
C1274      C1280   1.417       .  A
C1276      C1277   1.402       .  A
C1276      H1281   1.080       .  S
C1277      C1278   1.411       .  A
C1277     Br1285   1.915       .  S
C1278      C1279   1.403       .  A
C1279      C1280   1.399       .  A
C1279      H1282   1.077       .  S
C1280     Br1286   1.925       .  S
C1287      C1288   1.407       .  A
C1287      C1292   1.405       .  A
C1288      C1289   1.396       .  A
C1288     Br1304   1.918       .  S
C1289      C1290   1.405       .  A
C1289      H1293   1.084       .  S
C1290      C1294   1.491       .  S
C1290      C1291   1.413       .  A
C1291      C1292   1.404       .  A
C1291     Br1303   1.919       .  S
C1292      H1295   1.082       .  S
C1294      C1296   1.410       .  A
C1294      C1300   1.413       .  A
C1296      C1297   1.408       .  A
C1296      H1301   1.083       .  S
C1297      C1298   1.408       .  A
C1297     Br1305   1.915       .  S
C1298      C1299   1.398       .  A
C1299      C1300   1.394       .  A
C1299      H1302   1.082       .  S
C1300     Br1306   1.923       .  S
C1307      C1308   1.403       .  A
C1307      C1312   1.401   1_565  A
C1308      C1309   1.402       .  A
C1308     Br1324   1.913       .  S
C1309      C1310   1.408       .  A
C1309      H1313   1.084       .  S
C1310      C1314   1.483       .  S
C1310      C1311   1.411   1_565  A
C1311      C1312   1.395       .  A
C1311     Br1323   1.922       .  S
C1312      H1315   1.083       .  S
C1314      C1316   1.403   1_565  A
C1314      C1320   1.410       .  A
C1316      C1317   1.399       .  A
C1316      H1321   1.084       .  S
C1317      C1318   1.410       .  A
C1317     Br1325   1.915       .  S
C1318      C1319   1.402   1_545  A
C1319      C1320   1.397       .  A
C1319      H1322   1.084       .  S
C1320     Br1326   1.920       .  S
C1327      C1328   1.424       .  A
C1327      C1332   1.411       .  A
C1328      C1329   1.393       .  A
C1328     Br1344   1.929       .  S
C1329      C1330   1.398       .  A
C1329      H1333   1.085       .  S
C1330      C1334   1.484       .  S
C1330      C1331   1.406       .  A
C1331      C1332   1.407       .  A
C1331     Br1343   1.915       .  S
C1332      H1335   1.084       .  S
C1334      C1336   1.402       .  A
C1334      C1340   1.411       .  A
C1336      C1337   1.399       .  A
C1336      H1341   1.084       .  S
C1337      C1338   1.409       .  A
C1337     Br1345   1.918       .  S
C1338      C1339   1.402       .  A
C1339      C1340   1.403       .  A
C1339      H1342   1.083       .  S
C1340     Br1346   1.918       .  S
C1347      C1348   1.414       .  A
C1347      C1352   1.409       .  A
C1348      C1349   1.385       .  A
C1348     Br1364   1.919       .  S
C1349      C1350   1.396       .  A
C1349      H1353   1.085       .  S
C1350      C1354   1.481       .  S
C1350      C1351   1.409       .  A
C1351      C1352   1.410       .  A
C1351     Br1363   1.915       .  S
C1352      H1355   1.083       .  S
C1354      C1356   1.403       .  A
C1354      C1360   1.412       .  A
C1356      C1357   1.403       .  A
C1356      H1361   1.084       .  S
C1357      C1358   1.409       .  A
C1357     Br1365   1.915       .  S
C1358      C1359   1.399       .  A
C1359      C1360   1.394       .  A
C1359      H1362   1.083       .  S
C1360     Br1366   1.920       .  S
C1367      C1368   1.417       .  A
C1367      C1372   1.410       .  A
C1368      C1369   1.403       .  A
C1368     Br1384   1.917       .  S
C1369      C1370   1.404       .  A
C1369      H1373   1.083       .  S
C1370      C1374   1.490       .  S
C1370      C1371   1.405       .  A
C1371      C1372   1.401       .  A
C1371     Br1383   1.914       .  S
C1372      H1375   1.081       .  S
C1374      C1376   1.404       .  A
C1374      C1380   1.411       .  A
C1376      C1377   1.396       .  A
C1376      H1381   1.084       .  S
C1377      C1378   1.409       .  A
C1377     Br1385   1.920       .  S
C1378      C1379   1.404       .  A
C1379      C1380   1.406       .  A
C1379      H1382   1.084       .  S
C1380     Br1386   1.916       .  S
C1387      C1388   1.422       .  A
C1387      C1392   1.411       .  A
C1388      C1389   1.394       .  A
C1388     Br1404   1.900       .  S
C1389      C1390   1.390       .  A
C1389      H1393   1.085       .  S
C1390      C1394   1.489       .  S
C1390      C1391   1.412       .  A
C1391      C1392   1.415       .  A
C1391     Br1403   1.914       .  S
C1392      H1395   1.083       .  S
C1394      C1396   1.409       .  A
C1394      C1400   1.406       .  A
C1396      C1397   1.412       .  A
C1396      H1401   1.082       .  S
C1397      C1398   1.409       .  A
C1397     Br1405   1.914       .  S
C1398      C1399   1.411       .  A
C1399      C1400   1.397       .  A
C1399      H1402   1.084       .  S
C1400     Br1406   1.922       .  S
C1407      C1408   1.412       .  A
C1407      C1412   1.412       .  A
C1408      C1409   1.408       .  A
C1408     Br1424   1.917       .  S
C1409      C1410   1.408       .  A
C1409      H1413   1.084       .  S
C1410      C1414   1.487       .  S
C1410      C1411   1.405       .  A
C1411      C1412   1.395       .  A
C1411     Br1423   1.921       .  S
C1412      H1415   1.084       .  S
C1414      C1416   1.407       .  A
C1414      C1420   1.412       .  A
C1416      C1417   1.406       .  A
C1416      H1421   1.083       .  S
C1417      C1418   1.406       .  A
C1417     Br1425   1.915       .  S
C1418      C1419   1.403       .  A
C1419      C1420   1.396       .  A
C1419      H1422   1.084       .  S
C1420     Br1426   1.922       .  S
C1427      C1428   1.411       .  A
C1427      C1432   1.406       .  A
C1428      C1429   1.393       .  A
C1428     Br1444   1.923       .  S
C1429      C1430   1.402       .  A
C1429      H1433   1.086       .  S
C1430      C1434   1.488       .  S
C1430      C1431   1.412       .  A
C1431      C1432   1.407       .  A
C1431     Br1443   1.917       .  S
C1432      H1435   1.085       .  S
C1434      C1436   1.404       .  A
C1434      C1440   1.414       .  A
C1436      C1437   1.403       .  A
C1436      H1441   1.084       .  S
C1437      C1438   1.411       .  A
C1437     Br1445   1.918       .  S
C1438      C1439   1.400       .  A
C1439      C1440   1.396       .  A
C1439      H1442   1.083       .  S
C1440     Br1446   1.921       .  S
C1447      C1448   1.420       .  A
C1447      C1452   1.408       .  A
C1448      C1449   1.408       .  A
C1448     Br1464   1.920       .  S
C1449      C1450   1.404       .  A
C1449      H1453   1.083       .  S
C1450      C1454   1.483       .  S
C1450      C1451   1.407       .  A
C1451      C1452   1.393       .  A
C1451     Br1463   1.923       .  S
C1452      H1455   1.083       .  S
C1454      C1456   1.400       .  A
C1454      C1460   1.411       .  A
C1456      C1457   1.396       .  A
C1456      H1461   1.084       .  S
C1457      C1458   1.410       .  A
C1457     Br1465   1.920       .  S
C1458      C1459   1.402       .  A
C1459      C1460   1.405       .  A
C1459      H1462   1.084       .  S
C1460     Br1466   1.914       .  S
C1467      C1468   1.409       .  A
C1467      C1472   1.406       .  A
C1468      C1469   1.395       .  A
C1468     Br1484   1.918       .  S
C1469      C1470   1.401       .  A
C1469      H1473   1.085       .  S
C1470      C1474   1.481       .  S
C1470      C1471   1.408       .  A
C1471      C1472   1.407       .  A
C1471     Br1483   1.916       .  S
C1472      H1475   1.083       .  S
C1474      C1476   1.402       .  A
C1474      C1480   1.406       .  A
C1476      C1477   1.401       .  A
C1476      H1481   1.082       .  S
C1477      C1478   1.411       .  A
C1477     Br1485   1.915       .  S
C1478      C1479   1.407       .  A
C1479      C1480   1.401       .  A
C1479      H1482   1.083       .  S
C1480     Br1486   1.917       .  S
C1487      C1488   1.409       .  A
C1487      C1492   1.400       .  A
C1488      C1489   1.403       .  A
C1488     Br1504   1.917       .  S
C1489      C1490   1.403       .  A
C1489      H1493   1.083       .  S
C1490      C1494   1.479       .  S
C1490      C1491   1.410       .  A
C1491      C1492   1.397       .  A
C1491     Br1503   1.920       .  S
C1492      H1495   1.084       .  S
C1494      C1496   1.400       .  A
C1494      C1500   1.405       .  A
C1496      C1497   1.398       .  A
C1496      H1501   1.078       .  S
C1497      C1498   1.408       .  A
C1497     Br1505   1.919       .  S
C1498      C1499   1.409       .  A
C1499      C1500   1.402       .  A
C1499      H1502   1.083       .  S
C1500     Br1506   1.917       .  S
C1507      C1508   1.414       .  A
C1507      C1512   1.410       .  A
C1508      C1509   1.402       .  A
C1508     Br1524   1.919       .  S
C1509      C1510   1.402       .  A
C1509      H1513   1.083       .  S
C1510      C1514   1.482       .  S
C1510      C1511   1.405       .  A
C1511      C1512   1.403       .  A
C1511     Br1523   1.918       .  S
C1512      H1515   1.078       .  S
C1514      C1516   1.402       .  A
C1514      C1520   1.409       .  A
C1516      C1517   1.402       .  A
C1516      H1521   1.084       .  S
C1517      C1518   1.413       .  A
C1517     Br1525   1.920       .  S
C1518      C1519   1.402       .  A
C1519      C1520   1.401       .  A
C1519      H1522   1.084       .  S
C1520     Br1526   1.918       .  S
C1527      C1528   1.418       .  A
C1527      C1532   1.407       .  A
C1528      C1529   1.393       .  A
C1528     Br1544   1.921       .  S
C1529      C1530   1.397       .  A
C1529      H1533   1.085       .  S
C1530      C1534   1.475       .  S
C1530      C1531   1.408       .  A
C1531      C1532   1.402       .  A
C1531     Br1543   1.917       .  S
C1532      H1535   1.085       .  S
C1534      C1536   1.406       .  A
C1534      C1540   1.408       .  A
C1536      C1537   1.407       .  A
C1536      H1541   1.084       .  S
C1537      C1538   1.407       .  A
C1537     Br1545   1.915       .  S
C1538      C1539   1.402       .  A
C1539      C1540   1.390       .  A
C1539      H1542   1.085       .  S
C1540     Br1546   1.924       .  S
C1547      C1548   1.417       .  A
C1547      C1552   1.410       .  A
C1548      C1549   1.414       .  A
C1548     Br1564   1.916       .  S
C1549      C1550   1.408       .  A
C1549      H1553   1.082       .  S
C1550      C1554   1.492       .  S
C1550      C1551   1.407       .  A
C1551      C1552   1.395       .  A
C1551     Br1563   1.922       .  S
C1552      H1555   1.082       .  S
C1554      C1556   1.401       .  A
C1554      C1560   1.413       .  A
C1556      C1557   1.401       .  A
C1556      H1561   1.083       .  S
C1557      C1558   1.412       .  A
C1557     Br1565   1.920       .  S
C1558      C1559   1.402       .  A
C1559      C1560   1.407       .  A
C1559      H1562   1.083       .  S
C1560     Br1566   1.912       .  S
C1567      C1568   1.414       .  A
C1567      C1572   1.404       .  A
C1568      C1569   1.410       .  A
C1568     Br1584   1.916       .  S
C1569      C1570   1.406       .  A
C1569      H1573   1.083       .  S
C1570      C1574   1.479       .  S
C1570      C1571   1.406       .  A
C1571      C1572   1.389       .  A
C1571     Br1583   1.923       .  S
C1572      H1575   1.085       .  S
C1574      C1576   1.406       .  A
C1574      C1580   1.406       .  A
C1576      C1577   1.403       .  A
C1576      H1581   1.084       .  S
C1577      C1578   1.405       .  A
C1577     Br1585   1.916       .  S
C1578      C1579   1.405       .  A
C1579      C1580   1.398       .  A
C1579      H1582   1.085       .  S
C1580     Br1586   1.918       .  S
C1587      C1588   1.410       .  A
C1587      C1592   1.406       .  A
C1588      C1589   1.406       .  A
C1588     Br1604   1.918       .  S
C1589      C1590   1.407       .  A
C1589      H1593   1.085       .  S
C1590      C1594   1.498       .  S
C1590      C1591   1.409       .  A
C1591      C1592   1.404       .  A
C1591     Br1603   1.916       .  S
C1592      H1595   1.085       .  S
C1594      C1596   1.405       .  A
C1594      C1600   1.417       .  A
C1596      C1597   1.404       .  A
C1596      H1601   1.084       .  S
C1597      C1598   1.412       .  A
C1597     Br1605   1.919       .  S
C1598      C1599   1.402       .  A
C1599      C1600   1.405       .  A
C1599      H1602   1.084       .  S
C1600     Br1606   1.921       .  S
C1607      C1608   1.409       .  A
C1607      C1612   1.403       .  A
C1608      C1609   1.408       .  A
C1608     Br1624   1.916       .  S
C1609      C1610   1.408       .  A
C1609      H1613   1.084       .  S
C1610      C1614   1.484       .  S
C1610      C1611   1.409       .  A
C1611      C1612   1.391       .  A
C1611     Br1623   1.922       .  S
C1612      H1615   1.085       .  S
C1614      C1616   1.402       .  A
C1614      C1620   1.413       .  A
C1616      C1617   1.401       .  A
C1616      H1621   1.083       .  S
C1617      C1618   1.410       .  A
C1617     Br1625   1.917       .  S
C1618      C1619   1.401       .  A
C1619      C1620   1.400       .  A
C1619      H1622   1.083       .  S
C1620     Br1626   1.920       .  S
C1627      C1628   1.411       .  A
C1627      C1632   1.405       .  A
C1628      C1629   1.395       .  A
C1628     Br1644   1.919       .  S
C1629      C1630   1.403       .  A
C1629      H1633   1.085       .  S
C1630      C1634   1.495       .  S
C1630      C1631   1.413       .  A
C1631      C1632   1.411       .  A
C1631     Br1643   1.915       .  S
C1632      H1635   1.084       .  S
C1634      C1636   1.410       .  A
C1634      C1640   1.408       .  A
C1636      C1637   1.411       .  A
C1636      H1641   1.083       .  S
C1637      C1638   1.411       .  A
C1637     Br1645   1.916       .  S
C1638      C1639   1.409       .  A
C1639      C1640   1.397       .  A
C1639      H1642   1.084       .  S
C1640     Br1646   1.922       .  S
C1647      C1648   1.407       .  A
C1647      C1652   1.401       .  A
C1648      C1649   1.404       .  A
C1648     Br1664   1.916       .  S
C1649      C1650   1.406       .  A
C1649      H1653   1.082       .  S
C1650      C1654   1.486       .  S
C1650      C1651   1.413       .  A
C1651      C1652   1.398       .  A
C1651     Br1663   1.921       .  S
C1652      H1655   1.084       .  S
C1654      C1656   1.403       .  A
C1654      C1660   1.409       .  A
C1656      C1657   1.398       .  A
C1656      H1661   1.085       .  S
C1657      C1658   1.409       .  A
C1657     Br1665   1.920       .  S
C1658      C1659   1.404       .  A
C1659      C1660   1.405       .  A
C1659      H1662   1.084       .  S
C1660     Br1666   1.916       .  S
C1667      C1668   1.417       .  A
C1667      C1672   1.408       .  A
C1668      C1669   1.409       .  A
C1668     Br1684   1.917       .  S
C1669      C1670   1.406       .  A
C1669      H1673   1.082       .  S
C1670      C1674   1.491       .  S
C1670      C1671   1.408       .  A
C1671      C1672   1.395       .  A
C1671     Br1683   1.922       .  S
C1672      H1675   1.083       .  S
C1674      C1676   1.407       .  A
C1674      C1680   1.410       .  A
C1676      C1677   1.402       .  A
C1676      H1681   1.082       .  S
C1677      C1678   1.408       .  A
C1677     Br1685   1.917       .  S
C1678      C1679   1.407       .  A
C1679      C1680   1.402       .  A
C1679      H1682   1.082       .  S
C1680     Br1686   1.918       .  S
C1687      C1688   1.417       .  A
C1687      C1692   1.411       .  A
C1688      C1689   1.404       .  A
C1688     Br1704   1.921       .  S
C1689      C1690   1.405       .  A
C1689      H1693   1.084       .  S
C1690      C1694   1.494       .  S
C1690      C1691   1.407       .  A
C1691      C1692   1.403       .  A
C1691     Br1703   1.912       .  S
C1692      H1695   1.083       .  S
C1694      C1696   1.407       .  A
C1694      C1700   1.409       .  A
C1696      C1697   1.406       .  A
C1696      H1701   1.085       .  S
C1697      C1698   1.407       .  A
C1697     Br1705   1.918       .  S
C1698      C1699   1.407       .  A
C1699      C1700   1.404       .  A
C1699      H1702   1.085       .  S
C1700     Br1706   1.918       .  S
C1707      C1708   1.413       .  A
C1707      C1712   1.406       .  A
C1708      C1709   1.394       .  A
C1708     Br1724   1.915       .  S
C1709      C1710   1.398       .  A
C1709      H1713   1.083       .  S
C1710      C1714   1.468       .  S
C1710      C1711   1.403       .  A
C1711      C1712   1.398       .  A
C1711     Br1723   1.918       .  S
C1712      H1715   1.083       .  S
C1714      C1716   1.404       .  A
C1714      C1720   1.397       .  A
C1716      C1717   1.404       .  A
C1716      H1721   1.082       .  S
C1717      C1718   1.417       .  A
C1717     Br1725   1.920       .  S
C1718      C1719   1.410       .  A
C1719      C1720   1.386       .  A
C1719      H1722   1.080       .  S
C1720     Br1726   1.921       .  S
C1727      C1728   1.411       .  A
C1727      C1732   1.402       .  A
C1728      C1729   1.406       .  A
C1728     Br1744   1.915       .  S
C1729      C1730   1.405       .  A
C1729      H1733   1.084       .  S
C1730      C1734   1.486       .  S
C1730      C1731   1.410       .  A
C1731      C1732   1.398       .  A
C1731     Br1743   1.920       .  S
C1732      H1735   1.084       .  S
C1734      C1736   1.401       .  A
C1734      C1740   1.409       .  A
C1736      C1737   1.399       .  A
C1736      H1741   1.084       .  S
C1737      C1738   1.414       .  A
C1737     Br1745   1.918       .  S
C1738      C1739   1.406       .  A
C1739      C1740   1.405       .  A
C1739      H1742   1.084       .  S
C1740     Br1746   1.917       .  S
C1747      C1748   1.420       .  A
C1747      C1752   1.410       .  A
C1748      C1749   1.395       .  A
C1748     Br1764   1.923       .  S
C1749      C1750   1.401       .  A
C1749      H1753   1.084       .  S
C1750      C1754   1.488       .  S
C1750      C1751   1.410       .  A
C1751      C1752   1.406       .  A
C1751     Br1763   1.917       .  S
C1752      H1755   1.084       .  S
C1754      C1756   1.401       .  A
C1754      C1760   1.414       .  A
C1756      C1757   1.396       .  A
C1756      H1761   1.084       .  S
C1757      C1758   1.411       .  A
C1757     Br1765   1.920       .  S
C1758      C1759   1.399       .  A
C1759      C1760   1.401       .  A
C1759      H1762   1.084       .  S
C1760     Br1766   1.910       .  S
C1767      C1768   1.414       .  A
C1767      C1772   1.408       .  A
C1768      C1769   1.395       .  A
C1768     Br1784   1.923       .  S
C1769      C1770   1.401       .  A
C1769      H1773   1.086       .  S
C1770      C1774   1.481       .  S
C1770      C1771   1.408       .  A
C1771      C1772   1.402       .  A
C1771     Br1783   1.919       .  S
C1772      H1775   1.085       .  S
C1774      C1776   1.407       .  A
C1774      C1780   1.411       .  A
C1776      C1777   1.403       .  A
C1776      H1781   1.083       .  S
C1777      C1778   1.408       .  A
C1777     Br1785   1.915       .  S
C1778      C1779   1.401       .  A
C1779      C1780   1.393       .  A
C1779      H1782   1.083       .  S
C1780     Br1786   1.922       .  S
C1787      C1788   1.417       .  A
C1787      C1792   1.409       .  A
C1788      C1789   1.409       .  A
C1788     Br1804   1.920       .  S
C1789      C1790   1.405       .  A
C1789      H1793   1.084       .  S
C1790      C1794   1.479       .  S
C1790      C1791   1.406       .  A
C1791      C1792   1.385       .  A
C1791     Br1803   1.925       .  S
C1792      H1795   1.084       .  S
C1794      C1796   1.401       .  A
C1794      C1800   1.409       .  A
C1796      C1797   1.399       .  A
C1796      H1801   1.083       .  S
C1797      C1798   1.410       .  A
C1797     Br1805   1.918       .  S
C1798      C1799   1.402       .  A
C1799      C1800   1.400       .  A
C1799      H1802   1.079       .  S
C1800     Br1806   1.915       .  S
