geometry optimzed in LAMMPS
_audit_creation_date              2020-11-30 
_audit_creation_method            'lammps2cif' 
_symmetry_space_group_name_H-M    'P1' 
_symmetry_Int_Tables_number       1 
_symmetry_cell_setting            triclinic 
loop_ 
_symmetry_equiv_pos_as_xyz 
  x,y,z 
_cell_length_a                    34.24835768 
_cell_length_b                    34.528903794753504 
_cell_length_c                    34.31314907435327 
_cell_angle_alpha                 89.02666806107864 
_cell_angle_beta                  89.32616598400718 
_cell_angle_gamma                 91.1301983815518 
loop_ 
_atom_site_label 
_atom_site_type_symbol 
_atom_site_fract_x 
_atom_site_fract_y 
_atom_site_fract_z 
_atom_site_charge 
O1          O  0.60384126  0.98106184  0.47225067    -0.80600
O2          O  0.44366239  0.95864845  0.51298364    -0.80600
O3          O  0.50828456  0.93993252  0.55273498    -0.80600
O4          O  0.50077300  0.94442775  0.45117568    -0.80600
O5          O  0.47205532  0.97903151  0.58294107    -0.80700
O6          O  0.54446128  0.98117415  0.41965619    -0.80600
O7          O  0.42368030  0.96978098  0.45339621    -0.80600
O8          O  0.57414102  0.93586492  0.50835456    -0.80600
C9          C  0.59853468  0.94570968  0.48173937     1.09100
C10         C  0.41918311  0.95170141  0.48606162     1.09000
C11         C  0.49257924  0.94847392  0.58426113     1.09100
C12         C  0.52080050  0.95154231  0.42078704     1.09000
O13         O  0.52511010  0.05903978  0.44816229    -0.80600
O14         O  0.49556763  0.05416928  0.55152477    -0.80700
O15         O  0.60084281  0.00756481  0.54075234    -0.80600
O16         O  0.44827106  0.04184450  0.48000591    -0.80600
O17         O  0.41730432  0.03040507  0.53490658    -0.80600
O18         O  0.58447283  0.05608772  0.50238558    -0.80600
O19         O  0.48639381  0.02129735  0.41662635    -0.80600
O20         O  0.53478984  0.01564556  0.58493162    -0.80600
Co21       Co  0.56251577  0.01955262  0.46249138     1.51500
Co22       Co  0.47047852  0.00875741  0.52933662     1.51700
Co23       Co  0.55284507  0.97479681  0.54482713     1.51600
Co24       Co  0.47504433  0.99106175  0.46845462     1.51500
O25         O  0.52259035  0.99972830  0.50196379    -1.42500
C26         C  0.50952854  0.05089404  0.41638793     1.09000
C27         C  0.51404118  0.04647384  0.58241963     1.09100
C28         C  0.60238763  0.04334700  0.53216532     1.09100
C29         C  0.41780914  0.04664948  0.50100571     1.09000
O30         O  0.95660732  0.55687290  0.52307000    -0.80600
O31         O  0.97917907  0.40628167  0.45782343    -0.80600
O32         O  0.93967661  0.51411876  0.45139117    -0.80600
O33         O  0.93668372  0.48067690  0.55641490    -0.80600
O34         O  0.97493548  0.47412688  0.41598670    -0.80700
O35         O  0.97860093  0.51664399  0.58591718    -0.80600
O36         O  0.93417784  0.42142481  0.50161260    -0.80600
O37         O  0.96966712  0.58859931  0.46879268    -0.80600
C38         C  0.95363686  0.58799128  0.50270588     1.09100
C39         C  0.94478335  0.40271929  0.47162522     1.09000
C40         C  0.94542434  0.49667678  0.41972794     1.09100
C41         C  0.94774913  0.49526756  0.58776043     1.09000
O42         O  0.05299146  0.49942412  0.54793852    -0.80600
O43         O  0.05432792  0.49342935  0.44747072    -0.80700
O44         O  0.04029877  0.55743378  0.48979869    -0.80600
O45         O  0.00909449  0.39904462  0.52722021    -0.80600
O46         O  0.05434452  0.42650504  0.48939912    -0.80600
O47         O  0.03016061  0.57666906  0.54941554    -0.80600
O48         O  0.01569465  0.45697769  0.58040452    -0.80600
O49         O  0.01621734  0.53347176  0.42006145    -0.80600
Co50       Co  0.00648749  0.52737090  0.53303443     1.51500
Co51       Co  0.01556822  0.45174465  0.45475095     1.51700
Co52       Co  0.98759700  0.53465020  0.47367995     1.51600
Co53       Co  0.97377928  0.44190969  0.53943080     1.51500
O54         O  0.99373824  0.48138222  0.49930211    -1.42500
C55         C  0.04684840  0.47861504  0.57793755     1.09000
C56         C  0.04663771  0.51280357  0.41767622     1.09100
C57         C  0.04761946  0.58165114  0.51657945     1.09100
C58         C  0.04427508  0.40233730  0.51603145     1.09000
O59         O  0.41353678  0.53375168  0.01890805    -0.80600
O60         O  0.56963637  0.48508102  0.04239240    -0.80600
O61         O  0.50082572  0.44682385  0.05873391    -0.80600
O62         O  0.51805898  0.54491206  0.05938224    -0.80600
O63         O  0.53881837  0.41912274  0.01835850    -0.80700
O64         O  0.47828588  0.58170989  0.02580872    -0.80600
O65         O  0.59607078  0.54231319  0.03256082    -0.80600
O66         O  0.43613675  0.49278616  0.06255207    -0.80600
C67         C  0.41489674  0.52151624  0.05377156     1.09100
C68         C  0.59783846  0.50863030  0.04848057     1.09000
C69         C  0.51697126  0.41637847  0.04882363     1.09100
C70         C  0.50067843  0.57643832  0.05557677     1.09000
O71         O  0.49942968  0.55655915  0.94461652    -0.80600
O72         O  0.52040938  0.45451701  0.94342146    -0.80700
O73         O  0.41443391  0.46481965  0.98703335    -0.80600
O74         O  0.57035041  0.52202633  0.95904853    -0.80600
O75         O  0.59789825  0.46644200  0.96867108    -0.80600
O76         O  0.43555365  0.50782864  0.94292260    -0.80600
O77         O  0.53673948  0.58532461  0.98509828    -0.80600
O78         O  0.47925795  0.41862529  0.97951678    -0.80600
Co79       Co  0.45858029  0.54321994  0.98288374     1.51500
Co80       Co  0.54452380  0.47302784  0.99069350     1.51700
Co81       Co  0.45933351  0.45758734  0.02200283     1.51600
Co82       Co  0.54359776  0.53110737  0.01113805     1.51500
O83         O  0.49365974  0.50076367  0.00089652    -1.42500
C84         C  0.51645572  0.58716256  0.95409894     1.09000
C85         C  0.50282034  0.42248384  0.94966396     1.09100
C86         C  0.41537502  0.47764780  0.95226875     1.09100
C87         C  0.59926010  0.50025896  0.95263737     1.09000
C88         C  0.60090867  0.92532631  0.78630772     0.02700
C89         C  0.62527299  0.89284767  0.79140003    -0.13500
C90         C  0.63187700  0.86622142  0.76084041     0.00200
C91         C  0.60992263  0.87112633  0.72581643    -0.12000
C92         C  0.58431307  0.90317816  0.72080259     0.02700
C93         C  0.58415265  0.93123892  0.74979093    -0.11400
H94         H  0.63910077  0.88804763  0.81922179     0.08300
H95         H  0.61193651  0.84960817  0.70338345     0.05800
H96         H  0.56973317  0.95827553  0.74415540     0.05600
C97         C  0.71598559  0.78758004  0.74782795     0.79800
N98         N  0.74746088  0.78919467  0.72309066    -0.78500
C99         C  0.77736123  0.76371827  0.72567944     0.82200
N100        N  0.77554781  0.73522373  0.75425662    -0.78500
C101        C  0.74421942  0.73253217  0.77990362     0.82300
N102        N  0.71457385  0.75894866  0.77620236    -0.80200
C103        C  0.89980489  0.71837834  0.59443249     0.02700
C104        C  0.92219354  0.75268156  0.59006374    -0.13500
C105        C  0.91819973  0.78419275  0.61527027     0.00200
C106        C  0.88891463  0.78138862  0.64530355    -0.12000
C107        C  0.86549497  0.74703026  0.65084800     0.02700
C108        C  0.87192191  0.71582564  0.62533813    -0.11400
H109        H  0.94352686  0.75468873  0.56664900     0.08300
H110        H  0.88524582  0.80520541  0.66501885     0.05800
H111        H  0.85438927  0.68958366  0.62923772     0.05600
C112        C  0.79899437  0.60909416  0.91064205     0.02700
C113        C  0.76546922  0.58516930  0.91372113    -0.13500
C114        C  0.73259195  0.59014632  0.89018165     0.00200
C115        C  0.73329905  0.62140170  0.86223142    -0.12000
C116        C  0.76698400  0.64608003  0.85695581     0.02700
C117        C  0.79976675  0.63888650  0.88129576    -0.11400
H118        H  0.76487087  0.56201261  0.93528061     0.08300
H119        H  0.70829134  0.62566294  0.84378075     0.05800
H120        H  0.82566253  0.65715885  0.87781843     0.05600
C121        C  0.28028860  0.19334786  0.75586209     0.79800
N122        N  0.25533593  0.18891906  0.72531871    -0.78500
C123        C  0.22525107  0.21387293  0.71988733     0.82200
N124        N  0.22064878  0.24352077  0.74534139    -0.78500
C125        C  0.24547837  0.24853584  0.77571451     0.82300
N126        N  0.27500075  0.22312748  0.78084670    -0.80200
C127        C  0.29738098  0.38483737  0.88279791     0.02700
C128        C  0.29855356  0.35261204  0.85826984    -0.13500
C129        C  0.26490962  0.32912710  0.85249180     0.00200
C130        C  0.23008419  0.33760098  0.87322170    -0.12000
C131        C  0.22945438  0.36856719  0.89973552     0.02700
C132        C  0.26292124  0.39216072  0.90338544    -0.11400
H133        H  0.32557264  0.34615070  0.84318869     0.08300
H134        H  0.20426183  0.31937995  0.87006708     0.05800
H135        H  0.26233519  0.41632773  0.92315145     0.05600
C136        C  0.39841000  0.06974878  0.78070257     0.02700
C137        C  0.42762922  0.06938950  0.75145937    -0.13500
C138        C  0.42602069  0.09251156  0.71713598     0.00200
C139        C  0.39367490  0.11745173  0.71359100    -0.12000
C140        C  0.36423520  0.11913221  0.74252185     0.02700
C141        C  0.36684604  0.09515277  0.77602355    -0.11400
H142        H  0.45186171  0.05056321  0.75623106     0.08300
H143        H  0.39055417  0.13622801  0.68852002     0.05800
H144        H  0.34368700  0.09541660  0.79774223     0.05600
C145        C  0.09480193  0.20709744  0.59853885     0.02700
C146        C  0.12268302  0.20298314  0.62904067    -0.13500
C147        C  0.14544207  0.23550648  0.64138001     0.00200
C148        C  0.14077684  0.27147384  0.62220329    -0.12000
C149        C  0.11465617  0.27545101  0.59144170     0.02700
C150        C  0.09146039  0.24384100  0.58081185    -0.11400
H151        H  0.12579451  0.17537065  0.64392504     0.08300
H152        H  0.15731441  0.29670103  0.63151247     0.05800
H153        H  0.06900202  0.24911447  0.55959533     0.05600
O154        O  0.43935048  0.00956841  0.95245509    -0.80600
O155        O  0.43667184  0.98394902  0.05611425    -0.80600
O156        O  0.48207355  0.90560376  0.96297425    -0.80600
O157        O  0.45366265  0.05854301  0.02127169    -0.80600
O158        O  0.43670906  0.92282994  0.00530390    -0.80700
O159        O  0.46468581  0.08648746  0.96458829    -0.80600
O160        O  0.47655239  0.02246464  0.08522894    -0.80600
O161        O  0.47692523  0.97100795  0.91803033    -0.80600
C162        C  0.44618865  0.99188009  0.92117742     1.09100
C163        C  0.44537405  0.00154928  0.08655087     1.09000
C164        C  0.44730707  0.90335118  0.97597917     1.09100
C165        C  0.44798685  0.08722108  0.99811664     1.09000
O166        O  0.53722304  0.06148048  0.98775370    -0.80600
O167        O  0.51191132  0.90235223  0.03337816    -0.80700
O168        O  0.55544358  0.99398661  0.94840332    -0.80600
O169        O  0.55255368  0.00639300  0.04946659    -0.80600
O170        O  0.51611888  0.96381421  0.08302036    -0.80600
O171        O  0.51514852  0.03207715  0.92055591    -0.80600
O172        O  0.52630306  0.08298576  0.04632596    -0.80600
O173        O  0.55682675  0.92759429  0.99334201    -0.80600
Co174      Co  0.48591057  0.03441532  0.97340185     1.51500
Co175      Co  0.47540542  0.94544341  0.04244571     1.51700
Co176      Co  0.51774073  0.95150709  0.95783172     1.51600
Co177      Co  0.50516814  0.03161358  0.03253605     1.51500
O178        O  0.49544671  0.98309695  0.00112235    -1.42500
C179        C  0.54330367  0.08743286  0.01318199     1.09000
C180        C  0.54656545  0.90356982  0.02014992     1.09100
C181        C  0.54645798  0.01267349  0.91843538     1.09100
C182        C  0.54657060  0.98642891  0.08010230     1.09000
C183        C  0.28855964  0.73524834  0.76129194     0.79800
N184        N  0.26321184  0.70448791  0.76676939    -0.78500
C185        C  0.23282134  0.69835871  0.74191586     0.82200
N186        N  0.22765163  0.72381787  0.71161045    -0.78500
C187        C  0.25258662  0.75472236  0.70540659     0.82300
N188        N  0.28283209  0.76032121  0.73057030    -0.80200
C189        C  0.39105983  0.77241434  0.89590407     0.02700
C190        C  0.41780773  0.74439749  0.90726244    -0.13500
C191        C  0.41835695  0.70756093  0.89071906     0.00200
C192        C  0.39112035  0.69948572  0.86069021    -0.12000
C193        C  0.36464513  0.72798465  0.84717842     0.02700
C194        C  0.36519035  0.76459033  0.86522362    -0.11400
H195        H  0.43913804  0.75216746  0.92896115     0.08300
H196        H  0.39022905  0.67103945  0.84791523     0.05800
H197        H  0.34471182  0.78650662  0.85651222     0.05600
C198        C  0.22522476  0.88809197  0.59388363     0.02700
C199        C  0.25586396  0.89610219  0.56710359    -0.13500
C200        C  0.29035659  0.87465361  0.56670052     0.00200
C201        C  0.29378942  0.84441273  0.59500045    -0.12000
C202        C  0.26384853  0.83569277  0.62282010     0.02700
C203        C  0.22911417  0.85732900  0.62133913    -0.11400
H204        H  0.25273761  0.92006079  0.54678073     0.08300
H205        H  0.31991385  0.82735149  0.59581343     0.05800
H206        H  0.20598331  0.85161456  0.64255451     0.05600
C207        C  0.10154789  0.58511506  0.77386202     0.02700
C208        C  0.09660929  0.55702019  0.74522817    -0.13500
C209        C  0.11305201  0.56129392  0.70763825     0.00200
C210        C  0.13986111  0.59282433  0.70108927    -0.12000
C211        C  0.14972908  0.61884957  0.73116142     0.02700
C212        C  0.12939794  0.61532262  0.76716988    -0.11400
H213        H  0.07939482  0.53152240  0.75292752     0.08300
H214        H  0.15326148  0.59766114  0.67273142     0.05800
H215        H  0.13421219  0.63688898  0.78921504     0.05600
C216        C  0.74202557  0.27540057  0.20483909     0.79800
N217        N  0.71598496  0.24503856  0.21057495    -0.78500
C218        C  0.72210363  0.21728264  0.23882308     0.82200
N219        N  0.75454400  0.22050866  0.26160687    -0.78500
C220        C  0.78080086  0.25052323  0.25646964     0.82300
N221        N  0.77404505  0.27785833  0.22818626    -0.80200
C222        C  0.91859568  0.20555099  0.37261581     0.02700
C223        C  0.89015268  0.20247600  0.34265724    -0.13500
C224        C  0.86449588  0.23320745  0.33350482     0.00200
C225        C  0.86804632  0.26785002  0.35466941    -0.12000
C226        C  0.89519559  0.27145423  0.38506994     0.02700
C227        C  0.92001761  0.24040255  0.39352280    -0.11400
H228        H  0.88769069  0.17617113  0.32613806     0.08300
H229        H  0.84839050  0.29140878  0.34902634     0.05800
H230        H  0.94014951  0.24353733  0.41734598     0.05600
C231        C  0.79039442  0.39533296  0.07050526     0.02700
C232        C  0.75937002  0.42141835  0.07100647    -0.13500
C233        C  0.72814626  0.41789796  0.09799685     0.00200
C234        C  0.72821749  0.38666624  0.12571515    -0.12000
C235        C  0.75928969  0.36011399  0.12664964     0.02700
C236        C  0.78979919  0.36482957  0.09872433    -0.11400
H237        H  0.75943850  0.44505440  0.05006974     0.08300
H238        H  0.70506783  0.38384977  0.14737590     0.05800
H239        H  0.81313179  0.34418997  0.09922760     0.05600
C240        C  0.60631280  0.07639386  0.20759085     0.02700
C241        C  0.63013735  0.11004526  0.20060089    -0.13500
C242        C  0.63890175  0.13634690  0.23084248     0.00200
C243        C  0.62016647  0.13029602  0.26771124    -0.12000
C244        C  0.59475200  0.09784905  0.27453763     0.02700
C245        C  0.59128041  0.07016192  0.24545069    -0.11400
H246        H  0.64209047  0.11603187  0.17175745     0.08300
H247        H  0.62420476  0.15141874  0.29034406     0.05800
H248        H  0.57597632  0.04335400  0.25288003     0.05600
O249        O  0.95770312  0.54090808  0.98006087    -0.80600
O250        O  0.10907103  0.50989852  0.04320536    -0.80600
O251        O  0.00455865  0.55340421  0.05007099    -0.80600
O252        O  0.03307420  0.55592478  0.94794353    -0.80600
O253        O  0.04129029  0.51575286  0.08650785    -0.80700
O254        O  0.99482424  0.51706957  0.91744191    -0.80600
O255        O  0.09319770  0.55558733  0.00086010    -0.80600
O256        O  0.92666150  0.52990308  0.03505442    -0.80600
C257        C  0.92764636  0.54658326  0.00140982     1.09100
C258        C  0.11113628  0.54493175  0.03144866     1.09000
C259        C  0.01985242  0.54600034  0.08259372     1.09100
C260        C  0.01714763  0.54702490  0.91660680     1.09000
O261        O  0.00853239  0.44179664  0.95362857    -0.80600
O262        O  0.01775881  0.43959354  0.05246876    -0.80700
O263        O  0.95170061  0.45760504  0.01321895    -0.80600
O264        O  0.11413329  0.48044135  0.97303967    -0.80600
O265        O  0.08567790  0.43626233  0.01123823    -0.80600
O266        O  0.93205606  0.46967145  0.95393766    -0.80600
O267        O  0.05336561  0.47709117  0.92155643    -0.80600
O268        O  0.97995372  0.47789702  0.08199130    -0.80600
Co269      Co  0.98367813  0.48927554  0.96978437     1.51500
Co270      Co  0.06191829  0.47536495  0.04650446     1.51700
Co271      Co  0.97925462  0.50777294  0.02878074     1.51600
Co272      Co  0.07138833  0.51743436  0.96262328     1.51500
O273        O  0.03182458  0.49820521  0.00252801    -1.42500
C274        C  0.02979951  0.44733520  0.92372433     1.09000
C275        C  0.00041422  0.44736978  0.08332907     1.09100
C276        C  0.92634421  0.45243559  0.98675552     1.09100
C277        C  0.11022084  0.44553860  0.98451907     1.09000
C278        C  0.22520266  0.09449726  0.38051827     0.02700
C279        C  0.25640681  0.08636843  0.40562162    -0.13500
C280        C  0.29114279  0.10896344  0.40549515     0.00200
C281        C  0.29451283  0.14004101  0.37755309    -0.12000
C282        C  0.26346732  0.14931652  0.35185231     0.02700
C283        C  0.22884909  0.12634825  0.35417007    -0.11400
H284        H  0.25331122  0.06202502  0.42573009     0.08300
H285        H  0.32100492  0.15762526  0.37607773     0.05800
H286        H  0.20515771  0.13236063  0.33448834     0.05600
C287        C  0.24429013  0.23342822  0.27405167     0.79800
N288        N  0.21872673  0.26341860  0.27056596    -0.78500
C289        C  0.22053587  0.28860151  0.23919591     0.82200
N290        N  0.24830770  0.28276989  0.21056044    -0.78500
C291        C  0.27411640  0.25284577  0.21336192     0.82300
N292        N  0.27153916  0.22851839  0.24523455    -0.80200
C293        C  0.08950092  0.40394643  0.21988635     0.02700
C294        C  0.08826270  0.43171311  0.24908091    -0.13500
C295        C  0.10525686  0.42611115  0.28552889     0.00200
C296        C  0.13152150  0.39471748  0.28970262    -0.12000
C297        C  0.13925759  0.36907485  0.25828015     0.02700
C298        C  0.11649349  0.37325110  0.22403554    -0.11400
H299        H  0.07292129  0.45821249  0.24351385     0.08300
H300        H  0.14589435  0.39000192  0.31724111     0.05800
H301        H  0.11905412  0.35197255  0.20144275     0.05600
C302        C  0.38752828  0.22093920  0.07820615     0.02700
C303        C  0.35604277  0.22581734  0.10524724    -0.13500
C304        C  0.35150796  0.26153482  0.12512089     0.00200
C305        C  0.37883389  0.29213652  0.11651778    -0.12000
C306        C  0.41164076  0.28708891  0.09143093     0.02700
C307        C  0.41567219  0.25085003  0.07411805    -0.11400
H308        H  0.33465429  0.20263454  0.10981173     0.08300
H309        H  0.37442984  0.31987796  0.12988882     0.05800
H310        H  0.44174133  0.24510043  0.05736606     0.05600
C311        C  0.79192309  0.28020163  0.76367875     0.79800
N312        N  0.78673195  0.24835680  0.74081338    -0.78500
C313        C  0.75526223  0.22375920  0.74626549     0.82200
N314        N  0.72835896  0.23184295  0.77461617    -0.78500
C315        C  0.73266821  0.26339128  0.79786557     0.82300
N316        N  0.76461275  0.28750887  0.79204926    -0.80200
C317        C  0.91350904  0.40561765  0.72998162     0.02700
C318        C  0.94338574  0.40731596  0.75757935    -0.13500
C319        C  0.93977501  0.38961636  0.79474694     0.00200
C320        C  0.90661049  0.36479281  0.80175924    -0.12000
C321        C  0.87811517  0.35813481  0.77268801     0.02700
C322        C  0.88148098  0.37966578  0.73719132    -0.11400
H323        H  0.96980125  0.42305892  0.74947078     0.08300
H324        H  0.90234816  0.35063459  0.82985027     0.05800
H325        H  0.85842167  0.37730549  0.71602788     0.05600
C326        C  0.59006487  0.28672633  0.90463624     0.02700
C327        C  0.62120937  0.28495134  0.87671031    -0.13500
C328        C  0.64510632  0.25185514  0.87454984     0.00200
C329        C  0.63779530  0.22090939  0.90136767    -0.12000
C330        C  0.60749510  0.22185624  0.92985423     0.02700
C331        C  0.58423150  0.25503487  0.93074427    -0.11400
H332        H  0.62584212  0.30835800  0.85569487     0.08300
H333        H  0.65632859  0.19597603  0.89981616     0.05800
H334        H  0.56088209  0.25619845  0.95199515     0.05600
C335        C  0.72403970  0.10546754  0.62459351     0.02700
C336        C  0.73034739  0.13423755  0.65253692    -0.13500
C337        C  0.76683344  0.13803022  0.67123070     0.00200
C338        C  0.79661299  0.11139649  0.66139156    -0.12000
C339        C  0.79041442  0.08159487  0.63359470     0.02700
C340        C  0.75381549  0.07974249  0.61556173    -0.11400
H341        H  0.70717281  0.15419966  0.65858630     0.08300
H342        H  0.82455463  0.11403053  0.67558614     0.05800
H343        H  0.74825350  0.05866946  0.59319388     0.05600
C344        C  0.75093265  0.76083458  0.27792826     0.79800
N345        N  0.72403821  0.75328558  0.24994591    -0.78500
C346        C  0.72815450  0.72316399  0.22512089     0.82200
N347        N  0.75975662  0.69986071  0.22891829    -0.78500
C348        C  0.78692155  0.70652658  0.25710993     0.82300
N349        N  0.78217139  0.73706630  0.28158419    -0.80200
C350        C  0.72131284  0.87483957  0.40219460     0.02700
C351        C  0.72740134  0.84656239  0.37396997    -0.13500
C352        C  0.76328353  0.84520981  0.35335915     0.00200
C353        C  0.79225265  0.87421162  0.36077239    -0.12000
C354        C  0.78619611  0.90365858  0.38884401     0.02700
C355        C  0.75073889  0.90224385  0.40987576    -0.11400
H356        H  0.70439344  0.82537580  0.36891489     0.08300
H357        H  0.81916969  0.87377876  0.34405307     0.05800
H358        H  0.74513939  0.92284477  0.43254323     0.05600
C359        C  0.92542551  0.59543435  0.21439666     0.02700
C360        C  0.89583558  0.62361918  0.21158110    -0.13500
C361        C  0.86780662  0.62847870  0.24160018     0.00200
C362        C  0.86968950  0.60471634  0.27541892    -0.12000
C363        C  0.89856846  0.57610075  0.27916169     0.02700
C364        C  0.92586886  0.57206067  0.24847875    -0.11400
H365        H  0.89439669  0.64251131  0.18624191     0.08300
H366        H  0.84777841  0.60760446  0.29811478     0.05800
H367        H  0.94769645  0.55021357  0.25141416     0.05600
C368        C  0.61121682  0.77278232  0.09777086     0.02700
C369        C  0.63802420  0.77196571  0.12841734    -0.13500
C370        C  0.64276698  0.73842322  0.15161118     0.00200
C371        C  0.61849667  0.70550965  0.14479847    -0.12000
C372        C  0.59007409  0.70616330  0.11473956     0.02700
C373        C  0.58825095  0.73963140  0.09079349    -0.11400
H374        H  0.65537172  0.79775108  0.13432954     0.08300
H375        H  0.62059969  0.68047709  0.16399531     0.05800
H376        H  0.56793894  0.74058706  0.06692107     0.05600
C377        C  0.21790520  0.77659830  0.29911530     0.79800
N378        N  0.21606192  0.74566651  0.27466414    -0.78500
C379        C  0.24257664  0.74191231  0.24485366     0.82200
N380        N  0.27092107  0.76982750  0.23942934    -0.78500
C381        C  0.27363560  0.80088776  0.26340014     0.82300
N382        N  0.24686450  0.80418971  0.29312333    -0.80200
C383        C  0.42084587  0.90816052  0.29401535     0.02700
C384        C  0.42413320  0.92693658  0.25745762    -0.13500
C385        C  0.39368394  0.92695893  0.23045822     0.00200
C386        C  0.36061901  0.90245437  0.23805512    -0.12000
C387        C  0.35734191  0.88027517  0.27320346     0.02700
C388        C  0.38689839  0.88478333  0.30149425    -0.11400
H389        H  0.45120755  0.94151083  0.24923125     0.08300
H390        H  0.33718082  0.90120703  0.21721208     0.05800
H391        H  0.38315440  0.86978809  0.32924034     0.05600
C392        C  0.10548790  0.71681571  0.43598820     0.02700
C393        C  0.13496934  0.72025800  0.40690355    -0.13500
C394        C  0.13762332  0.75271937  0.38115125     0.00200
C395        C  0.11080745  0.78332178  0.38646619    -0.12000
C396        C  0.08031555  0.78022534  0.41532310     0.02700
C397        C  0.07751555  0.74577360  0.43776513    -0.11400
H398        H  0.15599206  0.69746635  0.40391457     0.08300
H399        H  0.11328587  0.80870845  0.36766395     0.05800
H400        H  0.05225430  0.74044499  0.45628965     0.05600
C401        C  0.29756041  0.61194906  0.12876663     0.02700
C402        C  0.29930436  0.64269338  0.15558164    -0.13500
C403        C  0.26552139  0.66412862  0.16505137     0.00200
C404        C  0.23017033  0.65505033  0.14580842    -0.12000
C405        C  0.22879925  0.62577597  0.11760769     0.02700
C406        C  0.26228348  0.60454879  0.10974455    -0.11400
H407        H  0.32665710  0.64929786  0.16979113     0.08300
H408        H  0.20403894  0.67108516  0.15201725     0.05800
H409        H  0.26069065  0.58171303  0.08846376     0.05600
O410        O  0.98796236  0.95202683  0.55943218    -0.80600
O411        O  0.01157372  0.05101680  0.55204135    -0.80600
O412        O  0.09177900  0.95987502  0.50885384    -0.80600
O413        O  0.93793898  0.01704279  0.54265248    -0.80600
O414        O  0.07577022  0.00452564  0.55109765    -0.80700
O415        O  0.90966610  0.96027126  0.53801416    -0.80600
O416        O  0.97211329  0.08023212  0.51393542    -0.80600
O417        O  0.02530476  0.91489584  0.52351999    -0.80600
C418        C  0.00399081  0.91986336  0.55451093     1.09100
C419        C  0.99465777  0.08156197  0.54343251     1.09000
C420        C  0.09535370  0.97491227  0.54190906     1.09100
C421        C  0.91014473  0.99389636  0.55313114     1.09000
O422        O  0.93370864  0.97877462  0.46173889    -0.80600
O423        O  0.09166339  0.03059275  0.47269898    -0.80700
O424        O  0.00074345  0.94039833  0.44334349    -0.80600
O425        O  0.98481635  0.04301992  0.43866676    -0.80600
O426        O  0.02802559  0.07894441  0.46931670    -0.80600
O427        O  0.96404742  0.91428364  0.48784854    -0.80600
O428        O  0.90880461  0.03597484  0.46905678    -0.80600
O429        O  0.06801509  0.98542119  0.43389409    -0.80600
Co430      Co  0.96152954  0.96869852  0.51244934     1.51500
Co431      Co  0.04966509  0.03932494  0.51151288     1.51700
Co432      Co  0.04438872  0.95228236  0.47745413     1.51600
Co433      Co  0.96223265  0.02662656  0.48869062     1.51500
O434        O  0.01235790  0.99653703  0.49684517    -1.42500
C435        C  0.90673881  0.00235407  0.45383658     1.09000
C436        C  0.09109156  0.01407751  0.44007061     1.09100
C437        C  0.98345652  0.91056177  0.45610526     1.09100
C438        C  0.00340639  0.07474114  0.44112423     1.09000
C439        C  0.03084302  0.81314506  0.45986156    -0.13800
C440        C  0.05083606  0.81171400  0.42334900     0.08400
C441        C  0.04223894  0.84081081  0.39565074    -0.13800
C442        C  0.01679812  0.87101226  0.40498348    -0.13800
C443        C  0.99828651  0.87276788  0.44194498     0.08400
C444        C  0.00433114  0.84235620  0.46843090    -0.13800
H445        H  0.03685430  0.79297836  0.48332858     0.12300
H446        H  0.05585414  0.84106826  0.36706303     0.12300
H447        H  0.01319569  0.89430491  0.38386012     0.12300
H448        H  0.99122543  0.84294822  0.49721233     0.12300
C449        C  0.23915933  0.70838135  0.21746299    -0.16900
C450        C  0.26859813  0.69698597  0.19351737    -0.32100
H451        H  0.21170560  0.69212511  0.21772551     0.12100
H452        H  0.29684941  0.71160361  0.19564007     0.12700
C453        C  0.18796831  0.78118919  0.33157598    -0.16900
C454        C  0.16667302  0.75105457  0.34741840    -0.32100
H455        H  0.18480398  0.80973556  0.34386251     0.12100
H456        H  0.17260361  0.72234052  0.33660126     0.12700
C457        C  0.30496543  0.83122210  0.25489396    -0.16900
C458        C  0.32282574  0.85328415  0.28205135    -0.32100
H459        H  0.31607153  0.83300392  0.22512717     0.12100
H460        H  0.31422392  0.84882798  0.31239493     0.12700
C461        C  0.85648195  0.92901715  0.39064742    -0.13800
C462        C  0.81665549  0.93480003  0.39820985     0.08400
C463        C  0.80683853  0.96957501  0.41756146    -0.13800
C464        C  0.83580411  0.99463768  0.43285938    -0.13800
C465        C  0.87547262  0.98656586  0.42788861     0.08400
C466        C  0.88507534  0.95464989  0.40456935    -0.13800
H467        H  0.86625863  0.90340930  0.37606847     0.12300
H468        H  0.77672262  0.97708816  0.42241257     0.12300
H469        H  0.82710367  0.01868937  0.45061930     0.12300
H470        H  0.91537127  0.94741688  0.39971945     0.12300
C471        C  0.69838227  0.71565003  0.19406544    -0.16900
C472        C  0.67020307  0.74128973  0.18531262    -0.32100
H473        H  0.70091325  0.68969890  0.17685218     0.12100
H474        H  0.66975907  0.76829936  0.20107573     0.12700
C475        C  0.82027311  0.67945526  0.26333457    -0.16900
C476        C  0.83499471  0.65639856  0.23534154    -0.32100
H477        H  0.83377843  0.67925076  0.29181347     0.12100
H478        H  0.82359926  0.65906127  0.20602294     0.12700
C479        C  0.74373681  0.79348441  0.30532655    -0.16900
C480        C  0.77172041  0.81294418  0.32531080    -0.32100
H481        H  0.71377701  0.80292234  0.30756784     0.12100
H482        H  0.80204579  0.80560723  0.32035483     0.12700
C483        C  0.84188748  0.99571048  0.58458076    -0.13800
C484        C  0.88065202  0.00952260  0.58153082     0.08400
C485        C  0.89013948  0.04421455  0.60102180    -0.13800
C486        C  0.86159077  0.06617935  0.61970223    -0.13800
C487        C  0.82214328  0.05426396  0.62025704     0.08400
C488        C  0.81318929  0.01751703  0.60400169    -0.13800
H489        H  0.83325936  0.96928428  0.57017065     0.12300
H490        H  0.91970177  0.05594706  0.59983713     0.12300
H491        H  0.87039116  0.09381312  0.63150082     0.12300
H492        H  0.78358905  0.00601152  0.60492522     0.12300
C493        C  0.77540290  0.17112630  0.69881039    -0.16900
C494        C  0.74778995  0.18970320  0.72005508    -0.32100
H495        H  0.80573501  0.18013471  0.70206281     0.12100
H496        H  0.71786482  0.17884872  0.71934840     0.12700
C497        C  0.70212459  0.27239218  0.82865380    -0.16900
C498        C  0.67512387  0.24589523  0.84237103    -0.32100
H499        H  0.70290282  0.30099408  0.84132943     0.12100
H500        H  0.67673663  0.21665615  0.83132970     0.12700
C501        C  0.82596847  0.30780859  0.75508547    -0.16900
C502        C  0.84337432  0.33121380  0.78161361    -0.32100
H503        H  0.83831753  0.30744401  0.72580306     0.12100
H504        H  0.83323156  0.32902011  0.81169376     0.12700
C505        C  0.30436572  0.24430805  0.18181119    -0.16900
C506        C  0.31773833  0.26935165  0.15330677    -0.32100
H507        H  0.31812663  0.21628995  0.18386454     0.12100
H508        H  0.30622083  0.29843445  0.15301632     0.12700
C509        C  0.19103350  0.32100976  0.23430031    -0.16900
C510        C  0.16854426  0.33632252  0.26341279    -0.32100
H511        H  0.18869006  0.33356008  0.20522253     0.12100
H512        H  0.17305307  0.32570160  0.29295459     0.12700
C513        C  0.15172453  0.08893028  0.38603278    -0.13800
C514        C  0.18804983  0.07072722  0.38434851     0.08400
C515        C  0.18887074  0.03041807  0.39202423    -0.13800
C516        C  0.15519820  0.00993366  0.40520309    -0.13800
C517        C  0.11993815  0.02923323  0.41078951     0.08400
C518        C  0.11820129  0.06849649  0.39939601    -0.13800
H519        H  0.14984572  0.11980037  0.38051891     0.12300
H520        H  0.21617424  0.01521210  0.39034586     0.12300
H521        H  0.15768875  0.97998929  0.41461611     0.12300
H522        H  0.09162913  0.08432391  0.40428565     0.12300
C523        C  0.26879737  0.18096966  0.32070526    -0.16900
C524        C  0.23982246  0.20427622  0.30744109    -0.32100
H525        H  0.29797167  0.18536991  0.30847805     0.12100
H526        H  0.21139788  0.20214658  0.32174388     0.12700
C527        C  0.99581980  0.39108125  0.89176879    -0.13800
C528        C  0.01795349  0.42588292  0.88827132     0.08400
C529        C  0.01829510  0.44551623  0.85229537    -0.13800
C530        C  0.99392903  0.43335057  0.82218442    -0.13800
C531        C  0.96945599  0.39973547  0.82599650     0.08400
C532        C  0.97242172  0.37791611  0.86099487    -0.13800
H533        H  0.99466019  0.37524900  0.91929780     0.12300
H534        H  0.03429998  0.47272675  0.84867173     0.12300
H535        H  0.99289604  0.45255336  0.79713615     0.12300
H536        H  0.95558107  0.35142319  0.86561390     0.12300
C537        C  0.01307002  0.55656507  0.15555647    -0.13800
C538        C  0.00296946  0.56616174  0.11711666     0.08400
C539        C  0.97012313  0.58960321  0.11159748    -0.13800
C540        C  0.94601380  0.59985954  0.14281772    -0.13800
C541        C  0.95443564  0.58854309  0.18137751     0.08400
C542        C  0.98972400  0.56831636  0.18721048    -0.13800
H543        H  0.03805956  0.53863014  0.16113099     0.12300
H544        H  0.96095336  0.59770077  0.08253270     0.12300
H545        H  0.91958993  0.61489980  0.13583432     0.12300
H546        H  0.99922778  0.56036781  0.21609810     0.12300
C547        C  0.00527183  0.44147453  0.15705556    -0.13800
C548        C  0.01617651  0.42949583  0.11983986     0.08400
C549        C  0.04813472  0.40419923  0.11670305    -0.13800
C550        C  0.07102893  0.39460805  0.14893066    -0.13800
C551        C  0.06207093  0.40888307  0.18588300     0.08400
C552        C  0.02720213  0.43040803  0.18968090    -0.13800
H553        H  0.98081524  0.46051536  0.16080659     0.12300
H554        H  0.05744571  0.39380292  0.08854280     0.12300
H555        H  0.09684696  0.37770435  0.14421798     0.12300
H556        H  0.01725001  0.44009908  0.21784922     0.12300
C557        C  0.15775010  0.60273814  0.03679974    -0.13800
C558        C  0.13588406  0.57210834  0.05432701     0.08400
C559        C  0.14068052  0.56453161  0.09445694    -0.13800
C560        C  0.16836584  0.58509942  0.11596456    -0.13800
C561        C  0.19223555  0.61365879  0.09794609     0.08400
C562        C  0.18614136  0.62298886  0.05835187    -0.13800
H563        H  0.15482762  0.60919505  0.00599291     0.12300
H564        H  0.12407879  0.54135025  0.10896531     0.12300
H565        H  0.17308496  0.57677599  0.14610353     0.12300
H566        H  0.20489117  0.64433716  0.04360381     0.12300
C567        C  0.85383890  0.43748325  0.98576680    -0.13800
C568        C  0.89142650  0.42823552  0.99813579     0.08400
C569        C  0.89484159  0.40253859  0.03021936    -0.13800
C570        C  0.86216608  0.39026167  0.05227267    -0.13800
C571        C  0.82446935  0.40225614  0.04242951     0.08400
C572        C  0.82074308  0.42413325  0.00726065    -0.13800
H573        H  0.85008745  0.45735375  0.96139489     0.12300
H574        H  0.92342498  0.39467166  0.04060618     0.12300
H575        H  0.86728412  0.37371081  0.07866125     0.12300
H576        H  0.79240274  0.43262611  0.99699209     0.12300
C577        C  0.98056553  0.17805693  0.40452912    -0.13800
C578        C  0.94486698  0.17207895  0.38448684     0.08400
C579        C  0.93327643  0.13330580  0.37851944    -0.13800
C580        C  0.95456894  0.10229649  0.39397821    -0.13800
C581        C  0.98820765  0.10828981  0.41689269     0.08400
C582        C  0.00158107  0.14680451  0.42075416    -0.13800
H583        H  0.99212526  0.20703594  0.40866526     0.12300
H584        H  0.90639777  0.12645631  0.36370978     0.12300
H585        H  0.94289856  0.07330054  0.38985355     0.12300
H586        H  0.02753847  0.15295764  0.43741782     0.12300
C587        C  0.69321753  0.18435295  0.24714531    -0.16900
C588        C  0.66563495  0.17110791  0.22218910    -0.32100
H589        H  0.69620782  0.16901274  0.27481464     0.12100
H590        H  0.66453700  0.18423424  0.19323929     0.12700
C591        C  0.73472810  0.30634003  0.17408534    -0.16900
C592        C  0.76366689  0.32953295  0.15845741    -0.32100
H593        H  0.70531164  0.30895563  0.16301825     0.12100
H594        H  0.79332803  0.32424353  0.16777766     0.12700
C595        C  0.81510722  0.25590975  0.28323436    -0.16900
C596        C  0.83190654  0.22710731  0.30442808    -0.32100
H597        H  0.82737117  0.28505136  0.28486968     0.12100
H598        H  0.82149941  0.19756779  0.30026177     0.12700
C599        C  0.09177837  0.59211848  0.84657516    -0.13800
C600        C  0.07691107  0.58166926  0.81026373     0.08400
C601        C  0.03875902  0.56512269  0.80916337    -0.13800
C602        C  0.01787253  0.55570134  0.84352149    -0.13800
C603        C  0.03401727  0.56380538  0.87980873     0.08400
C604        C  0.07046723  0.58364892  0.88081142    -0.13800
H605        H  0.12077255  0.60485603  0.84886836     0.12300
H606        H  0.02547257  0.55804781  0.78165017     0.12300
H607        H  0.98986871  0.54074195  0.84172937     0.12300
H608        H  0.08394786  0.59038619  0.90833629     0.12300
C609        C  0.15216196  0.89492812  0.58888888    -0.13800
C610        C  0.18938774  0.91236983  0.59161437     0.08400
C611        C  0.19277885  0.95293271  0.58581599    -0.13800
C612        C  0.16060502  0.97480641  0.57411305    -0.13800
C613        C  0.12425125  0.95665975  0.56803727     0.08400
C614        C  0.12010641  0.91675536  0.57687686    -0.13800
H615        H  0.14849300  0.86387122  0.59278214     0.12300
H616        H  0.22100731  0.96738228  0.58793286     0.12300
H617        H  0.16500663  0.00517141  0.56652518     0.12300
H618        H  0.09262874  0.90181708  0.57155570     0.12300
C619        C  0.20418276  0.66549314  0.74985050    -0.16900
C620        C  0.17888219  0.65144518  0.72308110    -0.32100
H621        H  0.20455811  0.65190946  0.77861499     0.12100
H622        H  0.18068105  0.66309866  0.69350074     0.12700
C623        C  0.24422062  0.78337012  0.67304033    -0.16900
C624        C  0.27170864  0.80644012  0.65506371    -0.32100
H625        H  0.21439704  0.78431039  0.66272772     0.12100
H626        H  0.30194766  0.80289482  0.66342974     0.12700
C627        C  0.32028778  0.74400017  0.79025023    -0.16900
C628        C  0.33472890  0.71802694  0.81645779    -0.32100
H629        H  0.33243019  0.77328571  0.78959710     0.12100
H630        H  0.32471787  0.68804598  0.81509668     0.12700
C631        C  0.59721939  0.84377409  0.09563927    -0.13800
C632        C  0.60362474  0.80932719  0.07552285     0.08400
C633        C  0.59748572  0.80906496  0.03496545    -0.13800
C634        C  0.58269889  0.84168460  0.01557827    -0.13800
C635        C  0.57365166  0.87499364  0.03644836     0.08400
C636        C  0.58201312  0.87608254  0.07637650    -0.13800
H637        H  0.60108870  0.84478904  0.12688805     0.12300
H638        H  0.60225467  0.78296835  0.01865160     0.12300
H639        H  0.57552027  0.83983214  0.98499590     0.12300
H640        H  0.57434257  0.90112735  0.09322628     0.12300
C641        C  0.39166054  0.81075026  0.95730590    -0.13800
C642        C  0.39276438  0.81015099  0.91620523     0.08400
C643        C  0.40447451  0.84391966  0.89567076    -0.13800
C644        C  0.41871269  0.87616147  0.91577120    -0.13800
C645        C  0.42073707  0.87552119  0.95674441     0.08400
C646        C  0.40532001  0.84327000  0.97743154    -0.13800
H647        H  0.38314249  0.78485311  0.97380018     0.12300
H648        H  0.40617332  0.84405546  0.86412860     0.12300
H649        H  0.43091410  0.90058306  0.89918822     0.12300
H650        H  0.40729324  0.84173373  0.00890070     0.12300
C651        C  0.54777431  0.00035813  0.15076758    -0.13800
C652        C  0.56802692  0.99919643  0.11520613     0.08400
C653        C  0.60334217  0.02074659  0.11126296    -0.13800
C654        C  0.61679161  0.04454172  0.14141370    -0.13800
C655        C  0.59478331  0.04823643  0.17608929     0.08400
C656        C  0.56020736  0.02513730  0.18011603    -0.13800
H657        H  0.52000289  0.98513519  0.15453097     0.12300
H658        H  0.61943946  0.02095598  0.08388559     0.12300
H659        H  0.64377574  0.06084011  0.13684612     0.12300
H660        H  0.54077298  0.02750423  0.20493459     0.12300
C661        C  0.39785435  0.95781683  0.12323325    -0.13800
C662        C  0.42462840  0.98953788  0.12354442     0.14000
C663        C  0.43502912  0.00465935  0.15967819    -0.13800
C664        C  0.42176756  0.98639731  0.19442869    -0.13800
C665        C  0.39894094  0.95167033  0.19401936     0.08400
C666        C  0.38548021  0.93895600  0.15788025    -0.13800
H667        H  0.38863011  0.94551231  0.09593316     0.12300
H668        H  0.45497571  0.02930375  0.16113465     0.12300
H669        H  0.43128904  0.99842164  0.22174384     0.12300
H670        H  0.36767177  0.91283795  0.15599491     0.12300
C671        C  0.38992108  0.14769638  0.07001822    -0.13800
C672        C  0.39385652  0.18521801  0.05395509     0.08400
C673        C  0.40987373  0.18890909  0.01565981    -0.13800
C674        C  0.42501922  0.15692443  0.99586597    -0.13800
C675        C  0.42398773  0.11993430  0.01336895     0.08400
C676        C  0.40469785  0.11564776  0.05005821    -0.13800
H677        H  0.37790703  0.14337573  0.09912754     0.12300
H678        H  0.41270769  0.21720758  0.00170063     0.12300
H679        H  0.43954690  0.16161059  0.96793887     0.12300
H680        H  0.40303362  0.08759205  0.06465071     0.12300
C681        C  0.56194762  0.15897340  0.01367519    -0.13800
C682        C  0.56837561  0.12140531  0.00042953     0.08400
C683        C  0.59273334  0.11731388  0.96737411    -0.13800
C684        C  0.60678189  0.14954209  0.94578058    -0.13800
C685        C  0.59792558  0.18748015  0.95686517     0.08400
C686        C  0.57696792  0.19152418  0.99251830    -0.13800
H687        H  0.54322276  0.16333309  0.03880563     0.12300
H688        H  0.59852669  0.08879688  0.95621155     0.12300
H689        H  0.62239185  0.14412572  0.91893907     0.12300
H690        H  0.57073481  0.21985293  0.00366999     0.12300
C691        C  0.05086035  0.17616026  0.54750819    -0.13800
C692        C  0.06710215  0.17513057  0.58542284     0.08400
C693        C  0.05459529  0.14464643  0.61058643    -0.13800
C694        C  0.02775620  0.11616320  0.59800979    -0.13800
C695        C  0.01171346  0.11760302  0.56023768     0.08400
C696        C  0.02299283  0.14858824  0.53561681    -0.13800
H697        H  0.06046455  0.19759058  0.52597008     0.12300
H698        H  0.06565599  0.14247028  0.63992219     0.12300
H699        H  0.02066244  0.09188857  0.61740529     0.12300
H700        H  0.01260428  0.14985039  0.50600960     0.12300
C701        C  0.42139595  0.00842450  0.81495529    -0.13800
C702        C  0.40244893  0.04443658  0.81656718     0.08400
C703        C  0.39087450  0.05761440  0.85336484    -0.13800
C704        C  0.40126361  0.03760268  0.88742839    -0.13800
C705        C  0.42424368  0.00415760  0.88585386     0.08400
C706        C  0.43242906  0.98873681  0.84913977    -0.13800
H707        H  0.42938577  0.99618793  0.78722546     0.12300
H708        H  0.37621252  0.08492653  0.85619430     0.12300
H709        H  0.39410075  0.05043218  0.91511967     0.12300
H710        H  0.44960446  0.96285346  0.84673006     0.12300
C711        C  0.15922906  0.38766075  0.90598276    -0.13800
C712        C  0.19451391  0.37823463  0.92381741     0.08400
C713        C  0.19868778  0.38549350  0.96393309    -0.13800
C714        C  0.16950672  0.40441931  0.98493140    -0.13800
C715        C  0.13559865  0.41654201  0.96622948     0.08400
C716        C  0.13026299  0.40703114  0.92689247    -0.13800
H717        H  0.15539762  0.38297393  0.87512382     0.12300
H718        H  0.22571503  0.37872480  0.97841022     0.12300
H719        H  0.17466666  0.41204797  0.01495222     0.12300
H720        H  0.10468143  0.41662295  0.91160517     0.12300
C721        C  0.17105641  0.23555047  0.67672829    -0.16900
C722        C  0.19782187  0.20872725  0.68622818    -0.32100
H723        H  0.17024825  0.26164488  0.69396768     0.12100
H724        H  0.20090321  0.18349808  0.66805725     0.12700
C725        C  0.32989743  0.14472089  0.73544005    -0.16900
C726        C  0.31265350  0.16575104  0.76342679    -0.32100
H727        H  0.32043245  0.14856991  0.70553972     0.12100
H728        H  0.32431413  0.16463004  0.79271633     0.12700
C729        C  0.23985585  0.28149658  0.80297224    -0.16900
C730        C  0.26838917  0.29473917  0.82654179    -0.32100
H731        H  0.21225670  0.29642645  0.80212469     0.12100
H732        H  0.29683085  0.28141269  0.82484055     0.12700
C733        C  0.82641654  0.58437660  0.97566778    -0.13800
C734        C  0.83290638  0.60049144  0.93765444     0.08400
C735        C  0.87189751  0.60414535  0.92470583    -0.13800
C736        C  0.90257824  0.58953715  0.94731020    -0.13800
C737        C  0.89563440  0.57035323  0.98368283     0.08400
C738        C  0.85711921  0.56915427  0.99804786    -0.13800
H739        H  0.79716382  0.58218132  0.98784938     0.12300
H740        H  0.87867277  0.61619814  0.89604114     0.12300
H741        H  0.93183553  0.59136418  0.93500062     0.12300
H742        H  0.85036587  0.55473933  0.02564856     0.12300
C743        C  0.93061839  0.85733124  0.61324321    -0.13800
C744        C  0.94439072  0.81970880  0.60795963     0.08400
C745        C  0.98233177  0.81638466  0.59130232    -0.13800
C746        C  0.00349751  0.84893545  0.57640450    -0.13800
C747        C  0.98809495  0.88615964  0.57875295     0.08400
C748        C  0.95222898  0.88991366  0.59927624    -0.13800
H749        H  0.90197963  0.86164390  0.62592297     0.12300
H750        H  0.99526206  0.78825677  0.58817777     0.12300
H751        H  0.03102652  0.84470125  0.56137042     0.12300
H752        H  0.93914185  0.91802406  0.60211148     0.12300
C753        C  0.74052904  0.70015331  0.81108001    -0.16900
C754        C  0.77030623  0.67794318  0.82501860    -0.32100
H755        H  0.71177032  0.69551177  0.82415241     0.12100
H756        H  0.79948729  0.68460826  0.81378760     0.12700
C757        C  0.83514958  0.74135199  0.68360639    -0.16900
C758        C  0.81150571  0.76943897  0.69721145    -0.32100
H759        H  0.82961780  0.71194190  0.69429442     0.12100
H760        H  0.81482164  0.79812303  0.68397721     0.12700
C761        C  0.61464748  0.96062984  0.84999165    -0.13800
C762        C  0.58982824  0.95252342  0.81864698     0.08400
C763        C  0.55290109  0.97046337  0.81848039    -0.13800
C764        C  0.54101094  0.99467908  0.84854212    -0.13800
C765        C  0.56457491  0.00041605  0.88099403     0.08400
C766        C  0.60203580  0.98393053  0.88086483    -0.13800
H767        H  0.64336513  0.94818393  0.85129767     0.12300
H768        H  0.53188092  0.96446361  0.79599038     0.12300
H769        H  0.51190344  0.00622409  0.84792384     0.12300
H770        H  0.62082200  0.98737428  0.90579107     0.12300
C771        C  0.66001079  0.83278384  0.76822413    -0.16900
C772        C  0.68329032  0.81638155  0.74070276    -0.32100
H773        H  0.66454942  0.82408380  0.79837306     0.12100
H774        H  0.68121933  0.82765714  0.71108156     0.12700
C775        C  0.47605287  0.37948894  0.09870941    -0.13800
C776        C  0.49843899  0.37930666  0.06385262     0.08400
C777        C  0.49380184  0.34747995  0.03952702    -0.13800
C778        C  0.46555008  0.31836761  0.04806304    -0.13800
C779        C  0.44211666  0.31880300  0.08251642     0.08400
C780        C  0.44874039  0.34967951  0.10807437    -0.13800
H781        H  0.47840048  0.40384115  0.11809391     0.12300
H782        H  0.51005326  0.34648989  0.01241720     0.12300
H783        H  0.46132875  0.29646842  0.02632178     0.12300
H784        H  0.43250701  0.35139842  0.13518060     0.12300
C785        C  0.55640337  0.39177083  0.91062788    -0.13800
C786        C  0.51934262  0.38798366  0.92923589     0.08400
C787        C  0.50333762  0.35043433  0.93387257    -0.13800
C788        C  0.52499756  0.31780617  0.92318070    -0.13800
C789        C  0.56384313  0.32153642  0.90837697     0.08400
C790        C  0.57834186  0.35928430  0.90080546    -0.13800
H791        H  0.57008195  0.42005558  0.90615940     0.12300
H792        H  0.47488860  0.34611815  0.94754391     0.12300
H793        H  0.51152033  0.28949885  0.92790255     0.12300
H794        H  0.60770580  0.36398784  0.88948622     0.12300
C795        C  0.66929396  0.50730581  0.06810683    -0.13800
C796        C  0.63091452  0.49271789  0.07160047     0.08400
C797        C  0.62501125  0.45632626  0.09063000    -0.13800
C798        C  0.65635423  0.43324220  0.10149659    -0.13800
C799        C  0.69496690  0.44601409  0.09472317     0.08400
C800        C  0.70089075  0.48446291  0.08006437    -0.13800
H801        H  0.67509384  0.53503571  0.05377066     0.12300
H802        H  0.59584970  0.44398998  0.09435248     0.12300
H803        H  0.65008913  0.40423207  0.11260473     0.12300
H804        H  0.73012994  0.49634997  0.07587477     0.12300
C805        C  0.62763430  0.55516690  0.91150323    -0.13800
C806        C  0.63246603  0.51789493  0.92860653     0.08400
C807        C  0.66998887  0.50238612  0.92724691    -0.13800
C808        C  0.70185761  0.52452664  0.91163293    -0.13800
C809        C  0.69748228  0.56332339  0.89788737     0.08400
C810        C  0.65942219  0.57746473  0.89671116    -0.13800
H811        H  0.59924146  0.56841969  0.91155587     0.12300
H812        H  0.67511608  0.47402887  0.93991330     0.12300
H813        H  0.73037964  0.51160688  0.91187294     0.12300
H814        H  0.65433319  0.60679356  0.88663726     0.12300
C815        C  0.55030771  0.60312664  0.10161262    -0.13800
C816        C  0.51614863  0.60905558  0.07959503     0.08400
C817        C  0.50315618  0.64707571  0.07522603    -0.13800
C818        C  0.52556494  0.67833729  0.08937072    -0.13800
C819        C  0.56231194  0.67259201  0.10711638     0.08400
C820        C  0.57325208  0.63426406  0.11455751    -0.13800
H821        H  0.56138533  0.57427465  0.10624026     0.12300
H822        H  0.47671868  0.65284674  0.05933082     0.12300
H823        H  0.51454515  0.70719199  0.08494920     0.12300
H824        H  0.60079202  0.62804836  0.12821605     0.12300
C825        C  0.46026831  0.67945708  0.94501747    -0.13800
C826        C  0.44751115  0.67857529  0.90584259     0.08400
C827        C  0.46371484  0.65041582  0.88165840    -0.13800
C828        C  0.49002643  0.62318945  0.89655012    -0.13800
C829        C  0.50160472  0.62350054  0.93591836     0.08400
C830        C  0.48728458  0.65284206  0.95953360    -0.13800
H831        H  0.44812539  0.69966807  0.96537946     0.12300
H832        H  0.45554501  0.64884581  0.85134900     0.12300
H833        H  0.49976127  0.60034999  0.87771309     0.12300
H834        H  0.49440254  0.65327775  0.99013770     0.12300
C835        C  0.35639384  0.52428675  0.09865433    -0.13800
C836        C  0.39039352  0.54191422  0.08284237     0.08400
C837        C  0.39590578  0.58216361  0.08749440    -0.13800
C838        C  0.36731781  0.60460060  0.10561844    -0.13800
C839        C  0.33193011  0.58749283  0.11870805     0.08400
C840        C  0.32746040  0.54682097  0.11622800    -0.13800
H841        H  0.35082611  0.49362099  0.09475690     0.12300
H842        H  0.42137436  0.59680513  0.07495215     0.12300
H843        H  0.37161198  0.63572457  0.10660376     0.12300
H844        H  0.30049944  0.53269378  0.12602972     0.12300
C845        C  0.35897919  0.47359764  0.90666559    -0.13800
C846        C  0.39132035  0.45636288  0.92394937     0.08400
C847        C  0.39543232  0.41599252  0.92143750    -0.13800
C848        C  0.36650833  0.39290707  0.90439938    -0.13800
C849        C  0.33241003  0.40967038  0.89030384     0.08400
C850        C  0.32961347  0.45038480  0.89016798    -0.13800
H851        H  0.35478101  0.50449233  0.90890394     0.12300
H852        H  0.41979821  0.40190648  0.93506944     0.12300
H853        H  0.36926337  0.36170565  0.90533427     0.12300
H854        H  0.30349582  0.46399990  0.87952360     0.12300
C855        C  0.04272101  0.49464512  0.34730392    -0.13800
C856        C  0.06537848  0.50036164  0.38042346     0.08400
C857        C  0.10270636  0.48351622  0.38126007    -0.13800
C858        C  0.11630412  0.46038317  0.35059832    -0.13800
C859        C  0.09273182  0.45272954  0.31820969     0.08400
C860        C  0.05569650  0.47072873  0.31727571    -0.13800
H861        H  0.01348919  0.50592174  0.34604903     0.12300
H862        H  0.12071553  0.48664324  0.40680068     0.12300
H863        H  0.14489540  0.44782831  0.35283658     0.12300
H864        H  0.03525537  0.46496930  0.29421946     0.12300
C865        C  0.92887203  0.49387129  0.34818099    -0.13800
C866        C  0.92374992  0.51065708  0.38479243     0.08400
C867        C  0.90408794  0.54618142  0.38646663    -0.13800
C868        C  0.89380803  0.56632235  0.35240252    -0.13800
C869        C  0.90208048  0.55124617  0.31548838     0.08400
C870        C  0.91766827  0.51361596  0.31406074    -0.13800
H871        H  0.94353439  0.46650408  0.34570708     0.12300
H872        H  0.89951196  0.56024702  0.41407653     0.12300
H873        H  0.88189689  0.59495234  0.35516336     0.12300
H874        H  0.92293729  0.49993955  0.28640611     0.12300
C875        C  0.05128370  0.48801544  0.64963007    -0.13800
C876        C  0.06972435  0.48899649  0.61305928     0.08400
C877        C  0.10524486  0.51009093  0.60896704    -0.13800
C878        C  0.12046615  0.53167419  0.63990266    -0.13800
C879        C  0.10007017  0.53390349  0.67574600     0.08400
C880        C  0.06544718  0.51073993  0.67999638    -0.13800
H881        H  0.02371420  0.47255349  0.65377588     0.12300
H882        H  0.12019659  0.51173093  0.58098506     0.12300
H883        H  0.14757127  0.54757049  0.63480838     0.12300
H884        H  0.04716887  0.51140065  0.70574288     0.12300
C885        C  0.91045779  0.44236856  0.62415149    -0.13800
C886        C  0.93266700  0.47729786  0.62521706     0.08400
C887        C  0.94462965  0.49047898  0.66169764    -0.13800
C888        C  0.93652228  0.46825522  0.69571118    -0.13800
C889        C  0.91697957  0.43168849  0.69422255     0.08400
C890        C  0.90299618  0.41983591  0.65796204    -0.13800
H891        H  0.90071268  0.43100250  0.59662184     0.12300
H892        H  0.96156319  0.51716764  0.66379411     0.12300
H893        H  0.94662550  0.47941080  0.72318773     0.12300
H894        H  0.88795006  0.39218462  0.65521631     0.12300
C895        C  0.09066420  0.34790167  0.51235804    -0.13800
C896        C  0.07238302  0.37629614  0.53430791     0.08400
C897        C  0.07443233  0.37455418  0.57520092    -0.13800
C898        C  0.09228289  0.34352013  0.59402552    -0.13800
C899        C  0.10747061  0.31327078  0.57220007     0.08400
C900        C  0.10784115  0.31637564  0.53122024    -0.13800
H901        H  0.08867155  0.34832769  0.48087340     0.12300
H902        H  0.05995431  0.39585832  0.59271357     0.12300
H903        H  0.09105568  0.34141573  0.62555224     0.12300
H904        H  0.11899691  0.29301576  0.51388436     0.12300
C905        C  0.91420487  0.37659093  0.41187560    -0.13800
C906        C  0.91926627  0.37370827  0.45249659     0.08400
C907        C  0.91069982  0.33811555  0.47132438    -0.13800
C908        C  0.90049615  0.30535656  0.44958750    -0.13800
C909        C  0.89826576  0.30756094  0.40858979     0.08400
C910        C  0.90338681  0.34401687  0.39020506    -0.13800
H911        H  0.92153934  0.40347939  0.39650658     0.12300
H912        H  0.91537068  0.33476172  0.50235421     0.12300
H913        H  0.89636488  0.27773762  0.46464761     0.12300
H914        H  0.90204567  0.34672351  0.35875941     0.12300
C915        C  0.91827018  0.61559404  0.55996128    -0.13800
C916        C  0.93364769  0.62128817  0.52178807     0.08400
C917        C  0.93412309  0.65915852  0.50616930    -0.13800
C918        C  0.92111143  0.69038033  0.52877352    -0.13800
C919        C  0.90796689  0.68475724  0.56791721     0.08400
C920        C  0.90598755  0.64658475  0.58257705    -0.13800
H921        H  0.91739907  0.58701928  0.57349054     0.12300
H922        H  0.94581644  0.66487700  0.47714440     0.12300
H923        H  0.92227983  0.71913295  0.51572533     0.12300
H924        H  0.89677168  0.64059745  0.61238374     0.12300
C925        C  0.06861008  0.65185079  0.52074746    -0.13800
C926        C  0.07399307  0.61495543  0.50549057     0.08400
C927        C  0.09732665  0.61186723  0.47149436    -0.13800
C928        C  0.11012713  0.64480061  0.45027567    -0.13800
C929        C  0.10078193  0.68196827  0.46290542     0.08400
C930        C  0.08236414  0.68496293  0.49996554    -0.13800
H931        H  0.05089211  0.65535639  0.54675807     0.12300
H932        H  0.10248258  0.58376806  0.45905185     0.12300
H933        H  0.12443349  0.64076697  0.42240221     0.12300
H934        H  0.07617871  0.71306769  0.51180794     0.12300
C935        C  0.47413113  0.09651420  0.61522676    -0.13800
C936        C  0.50238111  0.06766240  0.61809658     0.08400
C937        C  0.51102530  0.05308951  0.65531057    -0.13800
C938        C  0.48872850  0.06362901  0.68792185    -0.13800
C939        C  0.45616258  0.08830725  0.68435166     0.08400
C940        C  0.45127385  0.10641933  0.64747633    -0.13800
H941        H  0.46702749  0.10913126  0.58709979     0.12300
H942        H  0.53305990  0.03130384  0.65887289     0.12300
H943        H  0.49674245  0.05039482  0.71534315     0.12300
H944        H  0.42850142  0.12669958  0.64192487     0.12300
C945        C  0.54209645  0.90597241  0.61715993    -0.13800
C946        C  0.51020439  0.93142469  0.62072986     0.08400
C947        C  0.50038782  0.94354765  0.65824769    -0.13800
C948        C  0.52268260  0.93197185  0.69060661    -0.13800
C949        C  0.55692538  0.90941293  0.68655836     0.08400
C950        C  0.56520658  0.89553430  0.64924693    -0.13800
H951        H  0.55082851  0.89561533  0.58881522     0.12300
H952        H  0.47620190  0.96282204  0.66251499     0.12300
H953        H  0.51326022  0.94177550  0.71890681     0.12300
H954        H  0.59056868  0.87800842  0.64429743     0.12300
C955        C  0.39320325  0.09029644  0.44732433    -0.13800
C956        C  0.38524016  0.06934081  0.48249493     0.08400
C957        C  0.34588390  0.06523158  0.49413453    -0.13800
C958        C  0.31569188  0.07976535  0.47036492    -0.13800
C959        C  0.32365084  0.09840565  0.43372838     0.08400
C960        C  0.36322213  0.10433533  0.42347754    -0.13800
H961        H  0.42301770  0.09423834  0.43691949     0.12300
H962        H  0.33825317  0.04917078  0.52060591     0.12300
H963        H  0.28589532  0.07546232  0.48053799     0.12300
H964        H  0.37131139  0.11811987  0.39592369     0.12300
C965        C  0.39359912  0.89788777  0.52866841    -0.13800
C966        C  0.38719371  0.92324368  0.49677831     0.08400
C967        C  0.34880793  0.92685513  0.48362707    -0.13800
C968        C  0.31749623  0.90833699  0.50423445    -0.13800
C969        C  0.32366757  0.88680360  0.53925411     0.08400
C970        C  0.36259373  0.88055754  0.54981173    -0.13800
H971        H  0.42284518  0.89400659  0.53960917     0.12300
H972        H  0.34267206  0.94607349  0.45929316     0.12300
H973        H  0.28831055  0.91258395  0.49351004     0.12300
H974        H  0.36957306  0.86461992  0.57610395     0.12300
C975        C  0.56508174  0.08644347  0.38187639    -0.13800
C976        C  0.52773570  0.06819852  0.37993185     0.08400
C977        C  0.51134747  0.06340776  0.34306563    -0.13800
C978        C  0.53232498  0.07512714  0.30922118    -0.13800
C979        C  0.57061313  0.09137375  0.31113948     0.08400
C980        C  0.58620947  0.09772063  0.34807862    -0.13800
H981        H  0.57907346  0.09037733  0.40970636     0.12300
H982        H  0.48287284  0.04959507  0.34032059     0.12300
H983        H  0.51890268  0.07038836  0.28123752     0.12300
H984        H  0.61548148  0.10969306  0.35087433     0.12300
C985        C  0.48354614  0.89911880  0.38614577    -0.13800
C986        C  0.50633810  0.93359208  0.38433421     0.08400
C987        C  0.50448235  0.95663626  0.35049937    -0.13800
C988        C  0.47731633  0.94822758  0.32152887    -0.13800
C989        C  0.45245592  0.91489383  0.32398913     0.08400
C990        C  0.45748592  0.88959283  0.35618093    -0.13800
H991        H  0.48402257  0.88072054  0.41200511     0.12300
H992        H  0.52114945  0.98353328  0.34819781     0.12300
H993        H  0.47460154  0.96974318  0.29858805     0.12300
H994        H  0.44031318  0.86309237  0.35927796     0.12300
C995        C  0.62943966  0.05773762  0.59736049    -0.13800
C996        C  0.62661678  0.06831418  0.55764717     0.08400
C997        C  0.65154119  0.09786500  0.54265520    -0.13800
C998        C  0.68144399  0.11334607  0.56595033    -0.13800
C999        C  0.68615422  0.10008305  0.60464522     0.08400
C1000       C  0.65883660  0.07341439  0.62055151    -0.13800
H1001       H  0.61045542  0.03522424  0.60988070     0.12300
H1002       H  0.65014025  0.10647707  0.51222183     0.12300
H1003       H  0.70267937  0.13345203  0.55292464     0.12300
H1004       H  0.66223689  0.06226858  0.65000007     0.12300
C1005       C  0.64785431  0.89305795  0.48175613    -0.13800
C1006       C  0.62233085  0.91710590  0.46133429     0.08400
C1007       C  0.62509426  0.91947937  0.42048300    -0.13800
C1008       C  0.65480462  0.90077361  0.40053345    -0.13800
C1009       C  0.68287980  0.88013727  0.42115877     0.08400
C1010       C  0.67837493  0.87505018  0.46176811    -0.13800
H1011       H  0.64653777  0.89126343  0.51328794     0.12300
H1012       H  0.60597797  0.93813808  0.40413912     0.12300
H1013       H  0.65824122  0.90578444  0.36941364     0.12300
H1014       H  0.70028604  0.85989416  0.47827023     0.12300
loop_ 
_geom_bond_atom_site_label_1 
_geom_bond_atom_site_label_2 
_geom_bond_distance 
_geom_bond_site_symmetry_2 
_ccdc_geom_bond_type 
O1            C9   1.267       .  A
O1          Co21   1.988   1_565  S
O2           C10   1.277       .  A
O2          Co22   2.033   1_565  S
O3           C11   1.245       .  A
O3          Co23   1.939       .  S
O4           C12   1.259       .  A
O4          Co24   1.949       .  S
O5           C11   1.280       .  A
O5          Co22   2.093   1_565  S
O6           C12   1.292       .  A
O6          Co21   2.087   1_565  S
O7           C10   1.280       .  A
O7          Co24   1.971       .  S
O8            C9   1.268       .  A
O8          Co23   1.995       .  S
C9         C1006   1.474       .  S
C10         C966   1.496       .  S
C11         C946   1.511       .  S
C12         C986   1.491       .  S
O13          C26   1.253       .  A
O13         Co21   1.950       .  S
O14          C27   1.268       .  A
O14         Co22   1.944       .  S
O15          C28   1.265       .  A
O15         Co23   1.979   1_545  S
O16          C29   1.276       .  A
O16         Co24   2.037   1_545  S
O17          C29   1.283       .  A
O17         Co22   1.991       .  S
O18          C28   1.274       .  A
O18         Co21   2.019       .  S
O19          C26   1.281       .  A
O19         Co24   2.076   1_545  S
O20          C27   1.294       .  A
O20         Co23   2.085   1_545  S
Co21         O25   2.015   1_545  S
Co22         O25   2.039   1_545  S
Co23         O25   2.001       .  S
Co24         O25   2.025       .  S
C26         C976   1.501       .  S
C27         C936   1.491       .  S
C28         C996   1.487       .  S
C29         C956   1.515       .  S
O30          C38   1.278       .  A
O30         Co50   2.036   1_655  S
O31          C39   1.267       .  A
O31         Co51   1.986   1_655  S
O32          C40   1.266       .  A
O32         Co52   1.945       .  S
O33          C41   1.255       .  A
O33         Co53   1.955       .  S
O34          C40   1.294       .  A
O34         Co51   2.087   1_655  S
O35          C41   1.277       .  A
O35         Co50   2.065   1_655  S
O36          C39   1.277       .  A
O36         Co53   2.015       .  S
O37          C38   1.280       .  A
O37         Co52   1.978       .  S
C38         C916   1.505       .  S
C39         C906   1.483       .  S
C40         C866   1.495       .  S
C41         C886   1.499       .  S
O42          C55   1.259       .  A
O42         Co50   1.947       .  S
O43          C56   1.246       .  A
O43         Co51   1.950       .  S
O44          C57   1.277       .  A
O44         Co52   2.041   1_455  S
O45          C58   1.263       .  A
O45         Co53   1.977   1_455  S
O46          C58   1.267       .  A
O46         Co51   1.996       .  S
O47          C57   1.277       .  A
O47         Co50   1.965       .  S
O48          C55   1.292       .  A
O48         Co53   2.086   1_455  S
O49          C56   1.277       .  A
O49         Co52   2.076   1_455  S
Co50         O54   2.025   1_455  S
Co51         O54   2.000   1_455  S
Co52         O54   2.041       .  S
Co53         O54   2.024       .  S
C55         C876   1.490       .  S
C56         C856   1.497       .  S
C57         C926   1.490       .  S
C58         C896   1.469       .  S
O59          C67   1.264       .  A
O59         Co79   1.984   1_554  S
O60          C68   1.272       .  A
O60         Co80   2.026   1_554  S
O61          C69   1.248       .  A
O61         Co81   1.948       .  S
O62          C70   1.257       .  A
O62         Co82   1.934       .  S
O63          C69   1.279       .  A
O63         Co80   2.080   1_554  S
O64          C70   1.297       .  A
O64         Co79   2.108   1_554  S
O65          C68   1.279       .  A
O65         Co82   1.983       .  S
O66          C67   1.276       .  A
O66         Co81   2.028       .  S
C67         C836   1.491       .  S
C68         C796   1.498       .  S
C69         C776   1.498       .  S
C70         C816   1.499       .  S
O71          C84   1.247       .  A
O71         Co79   1.950       .  S
O72          C85   1.263       .  A
O72         Co80   1.941       .  S
O73          C86   1.265       .  A
O73         Co81   1.979   1_556  S
O74          C87   1.274       .  A
O74         Co82   2.031   1_556  S
O75          C87   1.282       .  A
O75         Co80   1.988       .  S
O76          C86   1.273       .  A
O76         Co79   2.010       .  S
O77          C84   1.279       .  A
O77         Co82   2.079   1_556  S
O78          C85   1.300       .  A
O78         Co81   2.117   1_556  S
Co79         O83   2.008   1_556  S
Co80         O83   2.034   1_556  S
Co81         O83   2.001       .  S
Co82         O83   2.025       .  S
C84         C829   1.493       .  S
C85         C786   1.509       .  S
C86         C846   1.477       .  S
C87         C806   1.509       .  S
C88         C762   1.516       .  S
C88          C89   1.421       .  A
C88          C93   1.398       .  A
C89          C90   1.425       .  A
C89          H94   1.082       .  S
C90          C91   1.434       .  A
C90         C771   1.538       .  S
C91          C92   1.435       .  A
C91          H95   1.081       .  S
C92         C949   1.527       .  S
C92          C93   1.400       .  A
C93          H96   1.080       .  S
C97         C772   1.531       .  S
C97          N98   1.364       .  A
C97         N102   1.375       .  A
N98          C99   1.366       .  A
C99         C758   1.523       .  S
C99         N100   1.377       .  A
N100        C101   1.380       .  A
C101        C753   1.537       .  S
C101        N102   1.384       .  A
C103        C919   1.515       .  S
C103        C104   1.403       .  A
C103        C108   1.419       .  A
C104        C105   1.409       .  A
C104        H109   1.080       .  S
C105        C744   1.521       .  S
C105        C106   1.430       .  A
C106        C107   1.428       .  A
C106        H110   1.082       .  S
C107        C108   1.419       .  A
C107        C757   1.529       .  S
C108        H111   1.083       .  S
C112        C734   1.525       .  S
C112        C113   1.403       .  A
C112        C117   1.427       .  A
C113        C114   1.405       .  A
C113        H118   1.080       .  S
C114        C809   1.521       .  S
C114        C115   1.431       .  A
C115        C116   1.429       .  A
C115        H119   1.082       .  S
C116        C117   1.430       .  A
C116        C754   1.541       .  S
C117        H120   1.082       .  S
C121        C726   1.498       .  S
C121        N122   1.369       .  A
C121        N126   1.363       .  A
N122        C123   1.369       .  A
C123        C722   1.508       .  S
C123        N124   1.367       .  A
N124        C125   1.364       .  A
C125        C729   1.499       .  S
C125        N126   1.363       .  A
C127        C849   1.488       .  S
C127        C128   1.407       .  A
C127        C132   1.398       .  A
C128        C129   1.414       .  A
C128        H133   1.084       .  S
C129        C130   1.420       .  A
C129        C730   1.502       .  S
C130        C131   1.416       .  A
C130        H134   1.083       .  S
C131        C712   1.493       .  S
C131        C132   1.401       .  A
C132        H135   1.085       .  S
C136        C702   1.507       .  S
C136        C137   1.409       .  A
C136        C141   1.414       .  A
C137        C138   1.414       .  A
C137        H142   1.077       .  S
C138        C939   1.529       .  S
C138        C139   1.422       .  A
C139        C140   1.409       .  A
C139        H143   1.076       .  S
C140        C141   1.410       .  A
C140        C725   1.504       .  S
C141        H144   1.082       .  S
C145        C692   1.519       .  S
C145        C146   1.432       .  A
C145        C150   1.405       .  A
C146        C147   1.427       .  A
C146        H151   1.082       .  S
C147        C148   1.408       .  A
C147        C721   1.505       .  S
C148        C149   1.398       .  A
C148        H152   1.084       .  S
C149        C899   1.480       .  S
C149        C150   1.393       .  A
C150        H153   1.081       .  S
O154        C162   1.266   1_545  A
O154       Co174   1.947       .  S
O155        C163   1.253   1_565  A
O155       Co175   1.955       .  S
O156        C164   1.267       .  A
O156       Co176   1.986       .  S
O157        C165   1.278   1_554  A
O157       Co177   2.048       .  S
O158        C164   1.273   1_554  A
O158       Co175   2.006       .  S
O159        C165   1.280       .  A
O159       Co174   1.973       .  S
O160        C163   1.277       .  A
O160       Co177   2.063       .  S
O161        C162   1.292       .  A
O161       Co176   2.079       .  S
C162        C705   1.493   1_565  S
C163        C662   1.496   1_545  S
C164        C645   1.479       .  S
C165        C675   1.507   1_556  S
O166        C179   1.277   1_556  A
O166       Co174   2.043       .  S
O167        C180   1.265       .  A
O167       Co175   1.988       .  S
O168        C181   1.249   1_565  A
O168       Co176   1.955       .  S
O169        C182   1.260   1_545  A
O169       Co177   1.947       .  S
O170        C182   1.292       .  A
O170       Co175   2.080       .  S
O171        C181   1.278       .  A
O171       Co174   2.065       .  S
O172        C179   1.277       .  A
O172       Co177   1.970       .  S
O173        C180   1.270   1_556  A
O173       Co176   2.002       .  S
Co174       O178   2.031   1_546  S
Co175       O178   2.013       .  S
Co176       O178   2.010   1_556  S
Co177       O178   2.031   1_545  S
C179        C682   1.496       .  S
C180        C635   1.475       .  S
C181        C765   1.492       .  S
C182        C652   1.487       .  S
C183        C627   1.511       .  S
C183        N184   1.368       .  A
C183        N188   1.371       .  A
N184        C185   1.369       .  A
C185        C619   1.504       .  S
C185        N186   1.366       .  A
N186        C187   1.366       .  A
C187        C623   1.508       .  S
C187        N188   1.369       .  A
C189        C642   1.488       .  S
C189        C190   1.399       .  A
C189        C194   1.410       .  A
C190        C191   1.402       .  A
C190        H195   1.083       .  S
C191        C826   1.517       .  S
C191        C192   1.425       .  A
C192        C193   1.427       .  A
C192        H196   1.082       .  S
C193        C194   1.417       .  A
C193        C628   1.518       .  S
C194        H197   1.083       .  S
C198        C610   1.502       .  S
C198        C199   1.407       .  A
C198        C203   1.417       .  A
C199        C200   1.407       .  A
C199        H204   1.081       .  S
C200        C969   1.519       .  S
C200        C201   1.421       .  A
C201        C202   1.417       .  A
C201        H205   1.081       .  S
C202        C203   1.418       .  A
C202        C624   1.515       .  S
C203        H206   1.083       .  S
C207        C600   1.501       .  S
C207        C208   1.402       .  A
C207        C212   1.413       .  A
C208        C209   1.406       .  A
C208        H213   1.077       .  S
C209        C879   1.523       .  S
C209        C210   1.423       .  A
C210        C211   1.419       .  A
C210        H214   1.080       .  S
C211        C212   1.413       .  A
C211        C620   1.510       .  S
C212        H215   1.082       .  S
C216        C591   1.515       .  S
C216        N217   1.373       .  A
C216        N221   1.368       .  A
N217        C218   1.372       .  A
C218        C587   1.514       .  S
C218        N219   1.370       .  A
N219        C220   1.366       .  A
C220        C595   1.510       .  S
C220        N221   1.367       .  A
C222        C578   1.531       .  S
C222        C223   1.428       .  A
C222        C227   1.412       .  A
C223        C224   1.424       .  A
C223        H228   1.081       .  S
C224        C225   1.414       .  A
C224        C596   1.520       .  S
C225        C226   1.411       .  A
C225        H229   1.082       .  S
C226        C909   1.499       .  S
C226        C227   1.410       .  A
C227        H230   1.081       .  S
C231        C571   1.517       .  S
C231        C232   1.407       .  A
C231        C236   1.418       .  A
C232        C233   1.408       .  A
C232        H237   1.078       .  S
C233        C799   1.513       .  S
C233        C234   1.426       .  A
C234        C235   1.419       .  A
C234        H238   1.082       .  S
C235        C236   1.415       .  A
C235        C592   1.516       .  S
C236        H239   1.081       .  S
C240        C655   1.517       .  S
C240        C241   1.422       .  A
C240        C245   1.403       .  A
C241        C242   1.421       .  A
C241        H246   1.082       .  S
C242        C243   1.422       .  A
C242        C588   1.518       .  S
C243        C244   1.420       .  A
C243        H247   1.083       .  S
C244        C979   1.507       .  S
C244        C245   1.398       .  A
C245        H248   1.080       .  S
O249        C257   1.277   1_556  A
O249       Co269   2.042       .  S
O250        C258   1.269       .  A
O250       Co270   1.989       .  S
O251        C259   1.263       .  A
O251       Co271   1.941   1_455  S
O252        C260   1.252       .  A
O252       Co272   1.950       .  S
O253        C259   1.294       .  A
O253       Co270   2.100       .  S
O254        C260   1.274   1_655  A
O254       Co269   2.050       .  S
O255        C258   1.275       .  A
O255       Co272   2.014   1_554  S
O256        C257   1.281       .  A
O256       Co271   1.981       .  S
C257        C737   1.510   1_554  S
C258        C558   1.491       .  S
C259        C538   1.500       .  S
C260        C603   1.486       .  S
O261        C274   1.261       .  A
O261       Co269   1.948   1_455  S
O262        C275   1.244       .  A
O262       Co270   1.940       .  S
O263        C276   1.276   1_554  A
O263       Co271   2.038       .  S
O264        C277   1.266       .  A
O264       Co272   1.993       .  S
O265        C277   1.269   1_554  A
O265       Co270   2.006       .  S
O266        C276   1.276       .  A
O266       Co269   1.967       .  S
O267        C274   1.295       .  A
O267       Co272   2.088       .  S
O268        C275   1.278   1_655  A
O268       Co271   2.082       .  S
Co269       O273   2.028   1_656  S
Co270       O273   1.997       .  S
Co271       O273   2.039   1_655  S
Co272       O273   2.010   1_556  S
C274        C528   1.491       .  S
C275        C548   1.498       .  S
C276        C568   1.490       .  S
C277        C715   1.481       .  S
C278        C514   1.504       .  S
C278        C279   1.410       .  A
C278        C283   1.414       .  A
C279        C280   1.410       .  A
C279        H284   1.081       .  S
C280        C959   1.530       .  S
C280        C281   1.429       .  A
C281        C282   1.427       .  A
C281        H285   1.082       .  S
C282        C283   1.414       .  A
C282        C523   1.522       .  S
C283        H286   1.083       .  S
C287        C524   1.517       .  S
C287        N288   1.374       .  A
C287        N292   1.367       .  A
N288        C289   1.372       .  A
C289        C509   1.531       .  S
C289        N290   1.379       .  A
N290        C291   1.376       .  A
C291        C505   1.526       .  S
C291        N292   1.369       .  A
C293        C551   1.516       .  S
C293        C294   1.399       .  A
C293        C298   1.426       .  A
C294        C295   1.398       .  A
C294        H299   1.079       .  S
C295        C859   1.525       .  S
C295        C296   1.429       .  A
C296        C297   1.432       .  A
C296        H300   1.082       .  S
C297        C298   1.425       .  A
C297        C510   1.536       .  S
C298        H301   1.081       .  S
C302        C672   1.517       .  S
C302        C303   1.429       .  A
C302        C307   1.403       .  A
C303        C304   1.430       .  A
C303        H308   1.082       .  S
C304        C305   1.422       .  A
C304        C506   1.530       .  S
C305        C306   1.423       .  A
C305        H309   1.082       .  S
C306        C779   1.523       .  S
C306        C307   1.403       .  A
C307        H310   1.080       .  S
C311        C501   1.514       .  S
C311        N312   1.372       .  A
C311        N316   1.372       .  A
N312        C313   1.368       .  A
C313        C494   1.512       .  S
C313        N314   1.368       .  A
N314        C315   1.368       .  A
C315        C497   1.518       .  S
C315        N316   1.372       .  A
C317        C889   1.512       .  S
C317        C318   1.403       .  A
C317        C322   1.419       .  A
C318        C319   1.408       .  A
C318        H323   1.077       .  S
C319        C531   1.526       .  S
C319        C320   1.425       .  A
C320        C321   1.422       .  A
C320        H324   1.080       .  S
C321        C322   1.418       .  A
C321        C502   1.520       .  S
C322        H325   1.082       .  S
C326        C789   1.521       .  S
C326        C327   1.428       .  A
C326        C331   1.412       .  A
C327        C328   1.421       .  A
C327        H332   1.082       .  S
C328        C329   1.415       .  A
C328        C498   1.519       .  S
C329        C330   1.418       .  A
C329        H333   1.081       .  S
C330        C685   1.522       .  S
C330        C331   1.409       .  A
C331        H334   1.078       .  S
C335        C999   1.484       .  S
C335        C336   1.408       .  A
C335        C340   1.401       .  A
C336        C337   1.416       .  A
C336        H341   1.082       .  S
C337        C338   1.428       .  A
C337        C493   1.522       .  S
C338        C339   1.429       .  A
C338        H342   1.082       .  S
C339        C487   1.525       .  S
C339        C340   1.405       .  A
C340        H343   1.082       .  S
C344        C479   1.502       .  S
C344        N345   1.363       .  A
C344        N349   1.367       .  A
N345        C346   1.364       .  A
C346        C471   1.506       .  S
C346        N347   1.367       .  A
N347        C348   1.369       .  A
C348        C475   1.505       .  S
C348        N349   1.370       .  A
C350       C1009   1.477       .  S
C350        C351   1.404       .  A
C350        C355   1.399       .  A
C351        C352   1.413       .  A
C351        H356   1.082       .  S
C352        C353   1.424       .  A
C352        C480   1.514       .  S
C353        C354   1.429       .  A
C353        H357   1.081       .  S
C354        C462   1.524       .  S
C354        C355   1.405       .  A
C355        H358   1.081       .  S
C359        C541   1.523       .  S
C359        C360   1.422       .  A
C359        C364   1.410       .  A
C360        C361   1.414       .  A
C360        H365   1.080       .  S
C361        C362   1.413       .  A
C361        C476   1.510       .  S
C362        C363   1.417       .  A
C362        H366   1.082       .  S
C363        C869   1.509       .  S
C363        C364   1.410       .  A
C364        H367   1.077       .  S
C368        C632   1.492       .  S
C368        C369   1.404       .  A
C368        C373   1.402       .  A
C369        C370   1.407       .  A
C369        H374   1.084       .  S
C370        C371   1.419       .  A
C370        C472   1.502       .  S
C371        C372   1.427       .  A
C371        H375   1.082       .  S
C372        C819   1.513       .  S
C372        C373   1.409       .  A
C373        H376   1.081       .  S
C377        C453   1.517       .  S
C377        N378   1.370       .  A
C377        N382   1.373       .  A
N378        C379   1.369       .  A
C379        C449   1.507       .  S
C379        N380   1.363       .  A
N380        C381   1.365       .  A
C381        C457   1.507       .  S
C381        N382   1.371       .  A
C383        C989   1.519       .  S
C383        C384   1.405       .  A
C383        C388   1.421       .  A
C384        C385   1.403       .  A
C384        H389   1.079       .  S
C385        C665   1.509       .  S
C385        C386   1.419       .  A
C386        C387   1.420       .  A
C386        H390   1.082       .  S
C387        C388   1.419       .  A
C387        C458   1.515       .  S
C388        H391   1.081       .  S
C392        C929   1.509       .  S
C392        C393   1.413       .  A
C392        C397   1.400       .  A
C393        C394   1.416       .  A
C393        H398   1.082       .  S
C394        C395   1.426       .  A
C394        C454   1.520       .  S
C395        C396   1.432       .  A
C395        H399   1.081       .  S
C396        C440   1.525       .  S
C396        C397   1.407       .  A
C397        H400   1.079       .  S
C401        C839   1.502       .  S
C401        C402   1.417       .  A
C401        C406   1.401       .  A
C402        C403   1.423       .  A
C402        H407   1.083       .  S
C403        C404   1.418       .  A
C403        C450   1.513       .  S
C404        C405   1.412       .  A
C404        H408   1.083       .  S
C405        C561   1.486       .  S
C405        C406   1.399       .  A
C406        H409   1.085       .  S
O410        C418   1.262   1_655  A
O410       Co430   1.942       .  S
O411        C419   1.246   1_455  A
O411       Co431   1.948       .  S
O412        C420   1.262       .  A
O412       Co432   1.974       .  S
O413        C421   1.275   1_545  A
O413       Co433   2.040       .  S
O414        C420   1.276   1_545  A
O414       Co431   2.026       .  S
O415        C421   1.280       .  A
O415       Co430   1.986       .  S
O416        C419   1.281       .  A
O416       Co433   2.080       .  S
O417        C418   1.298       .  A
O417       Co432   2.113       .  S
C418        C747   1.508   1_455  S
C419        C695   1.492   1_655  S
C420        C613   1.486       .  S
C421        C484   1.509   1_565  S
O422        C435   1.272   1_565  A
O422       Co430   2.022       .  S
O423        C436   1.265       .  A
O423       Co431   1.980       .  S
O424        C437   1.248   1_455  A
O424       Co432   1.951       .  S
O425        C438   1.261   1_655  A
O425       Co433   1.945       .  S
O426        C438   1.299       .  A
O426       Co431   2.125       .  S
O427        C437   1.279       .  A
O427       Co430   2.076       .  S
O428        C435   1.282       .  A
O428       Co433   1.988       .  S
O429        C436   1.276   1_565  A
O429       Co432   2.019       .  S
Co430       O434   2.034   1_655  S
Co431       O434   2.009   1_545  S
Co432       O434   2.016       .  S
Co433       O434   2.044   1_645  S
C435        C465   1.501   1_545  S
C436        C517   1.482       .  S
C437        C443   1.496       .  S
C438        C581   1.518   1_455  S
C439        C440   1.423       .  A
C439        C444   1.403       .  A
C439        H445   1.080       .  S
C440        C441   1.409       .  A
C441        C442   1.411       .  A
C441        H446   1.081       .  S
C442        C443   1.414   1_455  A
C442        H447   1.083       .  S
C443        C444   1.397   1_655  A
C444        H448   1.081   1_455  S
C449        C450   1.361       .  D
C449        H451   1.085       .  S
C450        H452   1.086       .  S
C453        C454   1.361       .  D
C453        H455   1.085       .  S
C454        H456   1.087       .  S
C457        C458   1.357       .  D
C457        H459   1.086       .  S
C458        H460   1.086       .  S
C461        C462   1.404       .  A
C461        C466   1.401       .  A
C461        H467   1.080       .  S
C462        C463   1.426       .  A
C463        C464   1.415       .  A
C463        H468   1.080       .  S
C464        C465   1.401       .  A
C464        H469   1.083   1_565  S
C465        C466   1.415       .  A
C466        H470   1.084       .  S
C471        C472   1.355       .  D
C471        H473   1.086       .  S
C472        H474   1.086       .  S
C475        C476   1.357       .  D
C475        H477   1.086       .  S
C476        H478   1.086       .  S
C479        C480   1.359       .  D
C479        H481   1.085       .  S
C480        H482   1.086       .  S
C483        C484   1.404   1_565  A
C483        C488   1.417   1_565  A
C483        H489   1.083       .  S
C484        C485   1.416       .  A
C485        C486   1.405       .  A
C485        H490   1.083       .  S
C486        C487   1.404       .  A
C486        H491   1.082       .  S
C487        C488   1.424       .  A
C488        H492   1.081       .  S
C493        C494   1.364       .  D
C493        H495   1.086       .  S
C494        H496   1.085       .  S
C497        C498   1.362       .  D
C497        H499   1.086       .  S
C498        H500   1.087       .  S
C501        C502   1.362       .  D
C501        H503   1.086       .  S
C502        H504   1.086       .  S
C505        C506   1.364       .  D
C505        H507   1.086       .  S
C506        H508   1.086       .  S
C509        C510   1.374       .  D
C509        H511   1.085       .  S
C510        H512   1.086       .  S
C513        C514   1.406       .  A
C513        C518   1.404       .  A
C513        H519   1.083       .  S
C514        C515   1.413       .  A
C515        C516   1.407       .  A
C515        H520   1.083       .  S
C516        C517   1.403       .  A
C516        H521   1.083   1_545  S
C517        C518   1.407       .  A
C518        H522   1.084       .  S
C523        C524   1.367       .  D
C523        H525   1.086       .  S
C524        H526   1.086       .  S
C527        C528   1.411   1_655  A
C527        C532   1.409       .  A
C527        H533   1.083       .  S
C528        C529   1.398       .  A
C529        C530   1.401   1_455  A
C529        H534   1.083       .  S
C530        C531   1.422       .  A
C530        H535   1.078       .  S
C531        C532   1.413       .  A
C532        H536   1.080       .  S
C537        C538   1.403       .  A
C537        C542   1.411   1_455  A
C537        H543   1.083       .  S
C538        C539   1.411   1_455  A
C539        C540   1.399       .  A
C539        H544   1.083       .  S
C540        C541   1.408       .  A
C540        H545   1.080       .  S
C541        C542   1.422       .  A
C542        H546   1.080       .  S
C547        C548   1.398       .  A
C547        C552   1.407       .  A
C547        H553   1.083   1_455  S
C548        C549   1.418       .  A
C549        C550   1.402       .  A
C549        H554   1.083       .  S
C550        C551   1.401       .  A
C550        H555   1.081       .  S
C551        C552   1.425       .  A
C552        H556   1.082       .  S
C557        C558   1.406       .  A
C557        C562   1.410       .  A
C557        H563   1.083       .  S
C558        C559   1.409       .  A
C559        C560   1.398       .  A
C559        H564   1.083       .  S
C560        C561   1.399       .  A
C560        H565   1.083       .  S
C561        C562   1.410       .  A
C562        H566   1.083       .  S
C567        C568   1.401       .  A
C567        C572   1.410   1_556  A
C567        H573   1.083       .  S
C568        C569   1.410   1_556  A
C569        C570   1.398       .  A
C569        H574   1.084       .  S
C570        C571   1.407       .  A
C570        H575   1.080       .  S
C571        C572   1.421       .  A
C572        H576   1.081   1_554  S
C577        C578   1.423       .  A
C577        C582   1.418   1_655  A
C577        H583   1.081       .  S
C578        C579   1.408       .  A
C579        C580   1.407       .  A
C579        H584   1.081       .  S
C580        C581   1.416       .  A
C580        H585   1.083       .  S
C581        C582   1.407   1_655  A
C582        H586   1.082       .  S
C587        C588   1.360       .  D
C587        H589   1.086       .  S
C588        H590   1.086       .  S
C591        C592   1.361       .  D
C591        H593   1.086       .  S
C592        H594   1.087       .  S
C595        C596   1.363       .  D
C595        H597   1.085       .  S
C596        H598   1.086       .  S
C599        C600   1.402       .  A
C599        C604   1.399       .  A
C599        H605   1.082       .  S
C600        C601   1.417       .  A
C601        C602   1.402       .  A
C601        H606   1.082       .  S
C602        C603   1.399       .  A
C602        H607   1.083   1_455  S
C603        C604   1.413       .  A
C604        H608   1.083       .  S
C609        C610   1.404       .  A
C609        C614   1.406       .  A
C609        H615   1.083       .  S
C610        C611   1.414       .  A
C611        C612   1.407       .  A
C611        H616   1.083       .  S
C612        C613   1.402       .  A
C612        H617   1.083   1_565  S
C613        C614   1.410       .  A
C614        H618   1.083       .  S
C619        C620   1.359       .  D
C619        H621   1.086       .  S
C620        H622   1.086       .  S
C623        C624   1.357       .  D
C623        H625   1.086       .  S
C624        H626   1.087       .  S
C627        C628   1.363       .  D
C627        H629   1.086       .  S
C628        H630   1.086       .  S
C631        C632   1.405       .  A
C631        C636   1.399       .  A
C631        H637   1.083       .  S
C632        C633   1.410       .  A
C633        C634   1.404       .  A
C633        H638   1.083       .  S
C634        C635   1.403       .  A
C634        H639   1.083   1_554  S
C635        C636   1.404       .  A
C636        H640   1.083       .  S
C641        C642   1.411       .  A
C641        C646   1.403       .  A
C641        H647   1.083       .  S
C642        C643   1.401       .  A
C643        C644   1.402       .  A
C643        H648   1.083       .  S
C644        C645   1.408       .  A
C644        H649   1.083       .  S
C645        C646   1.401       .  A
C646        H650   1.083   1_556  S
C651        C652   1.398   1_545  A
C651        C656   1.397       .  A
C651        H657   1.083   1_545  S
C652        C653   1.411   1_565  A
C653        C654   1.408       .  A
C653        H658   1.083       .  S
C654        C655   1.410       .  A
C654        H659   1.081       .  S
C655        C656   1.419       .  A
C656        H660   1.080       .  S
C661        C662   1.415       .  A
C661        C666   1.403       .  A
C661        H667   1.083       .  S
C662        C663   1.401   1_565  A
C663        C664   1.406   1_545  A
C663        H668   1.083       .  S
C664        C665   1.419       .  A
C664        H669   1.083       .  S
C665        C666   1.402       .  A
C666        H670   1.082       .  S
C671        C672   1.403       .  A
C671        C676   1.410       .  A
C671        H677   1.083       .  S
C672        C673   1.421       .  A
C673        C674   1.411   1_554  A
C673        H678   1.083       .  S
C674        C675   1.402   1_556  A
C674        H679   1.083       .  S
C675        C676   1.419       .  A
C676        H680   1.083       .  S
C681        C682   1.402       .  A
C681        C686   1.413   1_554  A
C681        H687   1.083       .  S
C682        C683   1.411   1_554  A
C683        C684   1.400       .  A
C683        H688   1.084       .  S
C684        C685   1.408       .  A
C684        H689   1.080       .  S
C685        C686   1.421       .  A
C686        H690   1.081   1_556  S
C691        C692   1.421       .  A
C691        C696   1.404       .  A
C691        H697   1.081       .  S
C692        C693   1.407       .  A
C693        C694   1.409       .  A
C693        H698   1.082       .  S
C694        C695   1.414       .  A
C694        H699   1.083       .  S
C695        C696   1.397       .  A
C696        H700   1.081       .  S
C701        C702   1.416       .  A
C701        C706   1.405   1_545  A
C701        H707   1.082   1_545  S
C702        C703   1.405       .  A
C703        C704   1.401       .  A
C703        H708   1.082       .  S
C704        C705   1.412       .  A
C704        H709   1.083       .  S
C705        C706   1.403   1_545  A
C706        H710   1.083       .  S
C711        C712   1.402       .  A
C711        C716   1.404       .  A
C711        H717   1.083       .  S
C712        C713   1.412       .  A
C713        C714   1.404       .  A
C713        H718   1.083       .  S
C714        C715   1.401       .  A
C714        H719   1.083   1_556  S
C715        C716   1.408       .  A
C716        H720   1.081       .  S
C721        C722   1.354       .  D
C721        H723   1.087       .  S
C722        H724   1.086       .  S
C725        C726   1.351       .  D
C725        H727   1.086       .  S
C726        H728   1.086       .  S
C729        C730   1.353       .  D
C729        H731   1.086       .  S
C730        H732   1.087       .  S
C733        C734   1.423       .  A
C733        C738   1.414       .  A
C733        H739   1.082       .  S
C734        C735   1.405       .  A
C735        C736   1.410       .  A
C735        H740   1.082       .  S
C736        C737   1.418       .  A
C736        H741   1.083       .  S
C737        C738   1.402       .  A
C738        H742   1.083   1_556  S
C743        C744   1.405       .  A
C743        C748   1.408       .  A
C743        H749   1.082       .  S
C744        C745   1.421       .  A
C745        C746   1.411   1_655  A
C745        H750   1.082       .  S
C746        C747   1.402   1_455  A
C746        H751   1.083       .  S
C747        C748   1.418       .  A
C748        H752   1.083       .  S
C753        C754   1.374       .  D
C753        H755   1.085       .  S
C754        H756   1.086       .  S
C757        C758   1.361       .  D
C757        H759   1.086       .  S
C758        H760   1.086       .  S
C761        C762   1.407       .  A
C761        C766   1.410       .  A
C761        H767   1.082       .  S
C762        C763   1.419       .  A
C763        C764   1.401       .  A
C763        H768   1.081       .  S
C764        C765   1.397   1_565  A
C764        H769   1.081   1_565  S
C765        C766   1.414   1_545  A
C766        H770   1.083       .  S
C771        C772   1.366       .  D
C771        H773   1.086       .  S
C772        H774   1.086       .  S
C775        C776   1.413       .  A
C775        C780   1.408       .  A
C775        H781   1.083       .  S
C776        C777   1.399       .  A
C777        C778   1.406       .  A
C777        H782   1.080       .  S
C778        C779   1.422       .  A
C778        H783   1.080       .  S
C779        C780   1.409       .  A
C780        H784   1.081       .  S
C785        C786   1.417       .  A
C785        C790   1.406       .  A
C785        H791   1.083       .  S
C786        C787   1.403       .  A
C787        C788   1.412       .  A
C787        H792   1.083       .  S
C788        C789   1.421       .  A
C788        H793   1.082       .  S
C789        C790   1.405       .  A
C790        H794   1.082       .  S
C795        C796   1.401       .  A
C795        C800   1.412       .  A
C795        H801   1.083       .  S
C796        C797   1.416       .  A
C797        C798   1.400       .  A
C797        H802   1.083       .  S
C798        C799   1.401       .  A
C798        H803   1.082       .  S
C799        C800   1.422       .  A
C800        H804   1.082       .  S
C805        C806   1.419       .  A
C805        C810   1.406       .  A
C805        H811   1.083       .  S
C806        C807   1.402       .  A
C807        C808   1.415       .  A
C807        H812   1.083       .  S
C808        C809   1.424       .  A
C808        H813   1.082       .  S
C809        C810   1.402       .  A
C810        H814   1.083       .  S
C815        C816   1.416       .  A
C815        C820   1.401       .  A
C815        H821   1.083       .  S
C816        C817   1.401       .  A
C817        C818   1.408       .  A
C817        H822   1.083       .  S
C818        C819   1.420       .  A
C818        H823   1.081       .  S
C819        C820   1.403       .  A
C820        H824   1.082       .  S
C825        C826   1.419       .  A
C825        C830   1.406       .  A
C825        H831   1.081       .  S
C826        C827   1.407       .  A
C827        C828   1.409       .  A
C827        H832   1.082       .  S
C828        C829   1.412       .  A
C828        H833   1.083       .  S
C829        C830   1.401       .  A
C830        H834   1.081       .  S
C835        C836   1.402       .  A
C835        C840   1.408       .  A
C835        H841   1.083       .  S
C836        C837   1.411       .  A
C837        C838   1.406       .  A
C837        H842   1.081       .  S
C838        C839   1.403       .  A
C838        H843   1.083       .  S
C839        C840   1.414       .  A
C840        H844   1.083       .  S
C845        C846   1.401       .  A
C845        C850   1.404       .  A
C845        H851   1.083       .  S
C846        C847   1.408       .  A
C847        C848   1.399       .  A
C847        H852   1.081       .  S
C848        C849   1.401       .  A
C848        H853   1.083       .  S
C849        C850   1.411       .  A
C850        H854   1.083       .  S
C855        C856   1.398       .  A
C855        C860   1.405       .  A
C855        H861   1.082       .  S
C856        C857   1.415       .  A
C857        C858   1.412       .  A
C857        H862   1.083       .  S
C858        C859   1.407       .  A
C858        H863   1.082       .  S
C859        C860   1.424       .  A
C860        H864   1.081       .  S
C865        C866   1.403       .  A
C865        C870   1.406       .  A
C865        H871   1.083       .  S
C866        C867   1.413       .  A
C867        C868   1.402       .  A
C867        H872   1.083       .  S
C868        C869   1.405       .  A
C868        H873   1.082       .  S
C869        C870   1.416       .  A
C870        H874   1.082       .  S
C875        C876   1.398       .  A
C875        C880   1.400       .  A
C875        H881   1.082       .  S
C876        C877   1.410       .  A
C877        C878   1.407       .  A
C877        H882   1.083       .  S
C878        C879   1.411       .  A
C878        H883   1.080       .  S
C879        C880   1.422       .  A
C880        H884   1.078       .  S
C885        C886   1.414       .  A
C885        C890   1.404       .  A
C885        H891   1.083       .  S
C886        C887   1.402       .  A
C887        C888   1.408       .  A
C887        H892   1.083       .  S
C888        C889   1.419       .  A
C888        H893   1.082       .  S
C889        C890   1.403       .  A
C890        H894   1.082       .  S
C895        C896   1.400       .  A
C895        C900   1.400       .  A
C895        H901   1.083       .  S
C896        C897   1.406       .  A
C897        C898   1.397       .  A
C897        H902   1.082       .  S
C898        C899   1.400       .  A
C898        H903   1.083       .  S
C899        C900   1.408       .  A
C900        H904   1.083       .  S
C905        C906   1.409       .  A
C905        C910   1.405       .  A
C905        H911   1.084       .  S
C906        C907   1.403       .  A
C907        C908   1.406       .  A
C907        H912   1.083       .  S
C908        C909   1.411       .  A
C908        H913   1.083       .  S
C909        C910   1.405       .  A
C910        H914   1.083       .  S
C915        C916   1.415       .  A
C915        C920   1.401       .  A
C915        H921   1.083       .  S
C916        C917   1.404       .  A
C917        C918   1.415       .  A
C917        H922   1.083       .  S
C918        C919   1.421       .  A
C918        H923   1.082       .  S
C919        C920   1.403       .  A
C920        H924   1.082       .  S
C925        C926   1.400       .  A
C925        C930   1.407       .  A
C925        H931   1.083       .  S
C926        C927   1.413       .  A
C927        C928   1.400       .  A
C927        H932   1.083       .  S
C928        C929   1.403       .  A
C928        H933   1.082       .  S
C929        C930   1.419       .  A
C930        H934   1.082       .  S
C935        C936   1.405       .  A
C935        C940   1.399       .  A
C935        H941   1.084       .  S
C936        C937   1.402       .  A
C937        C938   1.404       .  A
C937        H942   1.082       .  S
C938        C939   1.422       .  A
C938        H943   1.080       .  S
C939        C940   1.415       .  A
C940        H944   1.075       .  S
C945        C946   1.421       .  A
C945        C950   1.410       .  A
C945        H951   1.083       .  S
C946        C947   1.400       .  A
C947        C948   1.412       .  A
C947        H952   1.083       .  S
C948        C949   1.427       .  A
C948        H953   1.082       .  S
C949        C950   1.402       .  A
C950        H954   1.082       .  S
C955        C956   1.417       .  A
C955        C960   1.409       .  A
C955        H961   1.083       .  S
C956        C957   1.405       .  A
C957        C958   1.419       .  A
C957        H962   1.083       .  S
C958        C959   1.424       .  A
C958        H963   1.081       .  S
C959        C960   1.406       .  A
C960        H964   1.082       .  S
C965        C966   1.412       .  A
C965        C970   1.398       .  A
C965        H971   1.084       .  S
C966        C967   1.402       .  A
C967        C968   1.414       .  A
C967        H972   1.083       .  S
C968        C969   1.422       .  A
C968        H973   1.081       .  S
C969        C970   1.405       .  A
C970        H974   1.080       .  S
C975        C976   1.417       .  A
C975        C980   1.405       .  A
C975        H981   1.083       .  S
C976        C977   1.401       .  A
C977        C978   1.408       .  A
C977        H982   1.083       .  S
C978        C979   1.419       .  A
C978        H983   1.083       .  S
C979        C980   1.400       .  A
C980        H984   1.083       .  S
C985        C986   1.411       .  A
C985        C990   1.408       .  A
C985        H991   1.083       .  S
C986        C987   1.399       .  A
C987        C988   1.400       .  A
C987        H992   1.082       .  S
C988        C989   1.419       .  A
C988        H993   1.079       .  S
C989        C990   1.411       .  A
C990        H994   1.081       .  S
C995        C996   1.410       .  A
C995       C1000   1.397       .  A
C995       H1001   1.083       .  S
C996        C997   1.404       .  A
C997        C998   1.409       .  A
C997       H1002   1.083       .  S
C998        C999   1.409       .  A
C998       H1003   1.083       .  S
C999       C1000   1.399       .  A
C1000      H1004   1.084       .  S
C1005      C1006   1.403       .  A
C1005      C1010   1.405       .  A
C1005      H1011   1.083       .  S
C1006      C1007   1.405       .  A
C1007      C1008   1.395       .  A
C1007      H1012   1.082       .  S
C1008      C1009   1.400       .  A
C1008      H1013   1.084       .  S
C1009      C1010   1.408       .  A
C1010      H1014   1.083       .  S
