geometry optimzed in LAMMPS
_audit_creation_date              2020-11-30 
_audit_creation_method            'lammps2cif' 
_symmetry_space_group_name_H-M    'P1' 
_symmetry_Int_Tables_number       1 
_symmetry_cell_setting            triclinic 
loop_ 
_symmetry_equiv_pos_as_xyz 
  x,y,z 
_cell_length_a                    37.481750302146025 
_cell_length_b                    37.36136371453142 
_cell_length_c                    37.357670277904056 
_cell_angle_alpha                 89.94117516749004 
_cell_angle_beta                  90.08803826745343 
_cell_angle_gamma                 90.0473427324 
loop_ 
_atom_site_label 
_atom_site_type_symbol 
_atom_site_fract_x 
_atom_site_fract_y 
_atom_site_fract_z 
_atom_site_charge 
O1          O  0.73172164  0.68592175  0.24505823    -0.88130
C2          C  0.74713120  0.75968972  0.16804344     0.87900
Mg3        Mg  0.69400506  0.69330198  0.28651953     1.58150
O4          O  0.81487250  0.75273048  0.23125994    -0.87860
O5          O  0.78880407  0.67420388  0.23800350    -0.75190
C6          C  0.72320367  0.85937773  0.33742175     0.92950
O7          O  0.67573177  0.74031853  0.21001448    -0.75010
O8          O  0.70142083  0.83418799  0.34416216    -0.82520
Mg9        Mg  0.71273957  0.69438921  0.19198995     1.57960
C10         C  0.86184367  0.83456297  0.27972040     0.92870
O11         O  0.74802928  0.64683649  0.17517244    -0.80780
H12         H  0.85116030  0.72316748  0.25724806    -0.06120
C13         C  0.74309166  0.83124245  0.24572892     0.87810
O14         O  0.73968390  0.71041112  0.32430766    -0.75290
O15         O  0.75447762  0.73199445  0.18486555    -0.88050
O16         O  0.85542107  0.82117881  0.24899989    -0.80860
C17         C  0.83941226  0.77837184  0.14030347     0.92980
C18         C  0.77848001  0.64031028  0.16145908     0.92840
Mg19       Mg  0.78883122  0.80538461  0.30676443     1.57950
O20         O  0.75360142  0.85335945  0.32331605    -0.80780
O21         O  0.82545179  0.75899793  0.28891183    -0.75020
O22         O  0.82443161  0.74814977  0.14549382    -0.80860
O23         O  0.66517767  0.65704437  0.19773587    -0.82580
O24         O  0.67709537  0.75172661  0.35277351    -0.80890
C25         C  0.83147225  0.74424629  0.25875750     0.87270
O26         O  0.74707457  0.76788999  0.31379916    -0.88040
O27         O  0.77015121  0.81381744  0.25366476    -0.88140
O28         O  0.71295709  0.82528255  0.26035919    -0.75200
Mg29       Mg  0.80705087  0.71202560  0.19262973     1.57970
O30         O  0.84641440  0.79951667  0.16597829    -0.82570
H31         H  0.75687987  0.64791276  0.27321894    -0.06300
O32         O  0.68653046  0.74657373  0.26760798    -0.87840
H33         H  0.64957816  0.77557923  0.24193496    -0.06120
H34         H  0.77508358  0.74165007  0.35118354    -0.06300
C35         C  0.66959361  0.75482756  0.24025093     0.87250
C36         C  0.75873293  0.66834171  0.25278285     0.87840
C37         C  0.75460819  0.74036817  0.33080383     0.87880
H38         H  0.74495419  0.85159674  0.22521915    -0.06280
O39         O  0.76247374  0.78945789  0.17454158    -0.75310
Mg40       Mg  0.69455162  0.78760673  0.30583171     1.58000
H41         H  0.72658189  0.75871068  0.14772254    -0.06300
C42         C  0.64032375  0.66342674  0.21994991     0.92870
O43         O  0.65646589  0.69924192  0.33391606    -0.82530
C44         C  0.66296923  0.72128059  0.35900869     0.92930
O45         O  0.80039306  0.66530527  0.15437854    -0.82520
Mg46       Mg  0.80822393  0.80600721  0.21260916     1.58180
O47         O  0.64679362  0.67698811  0.25060956    -0.80850
O48         O  0.83678506  0.84228207  0.30126690    -0.82550
O49         O  0.80091607  0.22158017  0.78480561    -0.88130
C50         C  0.69615933  0.23216540  0.80670437     0.87900
Mg51       Mg  0.83388884  0.26669204  0.77574454     1.58150
O52         O  0.71614134  0.20170803  0.72116618    -0.87860
O53         O  0.78446615  0.17213953  0.75741278    -0.75190
C54         C  0.73632341  0.36932018  0.67083927     0.92950
O55         O  0.76045608  0.28363287  0.82743806    -0.75010
O56         O  0.76589312  0.36956254  0.68748982    -0.82520
Mg57       Mg  0.76908653  0.22272702  0.83167540     1.57960
C58         C  0.67144429  0.23730607  0.63197807     0.92870
O59         O  0.78072360  0.16173089  0.83786167    -0.80780
H60         H  0.74045576  0.16671630  0.68878799    -0.06120
C61         C  0.69428708  0.30613328  0.73241409     0.87810
O62         O  0.82786468  0.25782558  0.71499848    -0.75290
O63         O  0.72343276  0.21505170  0.79891147    -0.88050
O64         O  0.66398793  0.22124784  0.66112865    -0.80860
C65         C  0.63409587  0.17085735  0.76324418     0.92980
C66         C  0.76488423  0.13254614  0.82993841     0.92840
Mg67       Mg  0.73321584  0.27929677  0.66756786     1.57950
O68         O  0.72076241  0.34011400  0.66255402    -0.80780
O69         O  0.74280731  0.21821429  0.67135360    -0.75020
O70         O  0.66316917  0.16316815  0.77921075    -0.80860
O71         O  0.81536632  0.23522560  0.86769461    -0.82580
O72         O  0.83852565  0.33939654  0.71979596    -0.80890
C73         C  0.73311787  0.19426371  0.69366855     0.87270
O74         O  0.77896103  0.28675786  0.69989137    -0.88040
O75         O  0.70176297  0.27923608  0.71448594    -0.88140
O76         O  0.71810047  0.32808271  0.74300101    -0.75200
Mg77       Mg  0.72372062  0.16852876  0.76669468     1.57970
O78         O  0.63400375  0.18656279  0.73309681    -0.82570
H79         H  0.83588021  0.18907164  0.76075025    -0.06300
O80         O  0.78769761  0.29945568  0.77775010    -0.87840
H81         H  0.76447732  0.33504990  0.81023458    -0.06120
H82         H  0.80984973  0.26210339  0.66388623    -0.06300
C83         C  0.77106271  0.30731540  0.80532455     0.87250
C84         C  0.80836165  0.19410281  0.76777000     0.87840
C85         C  0.80572545  0.26907560  0.69165790     0.87880
H86         H  0.66683289  0.31063804  0.74001892    -0.06280
O87         O  0.67380222  0.24230178  0.78301003    -0.75310
Mg88       Mg  0.77866325  0.33278304  0.73286510     1.58000
H89         H  0.69153633  0.23927229  0.83435957    -0.06300
C90         C  0.83389369  0.26371584  0.86598516     0.92870
O91         O  0.87037823  0.31229041  0.76215801    -0.82530
C92         C  0.86838134  0.33092043  0.73371026     0.92930
O93         O  0.73548016  0.13232964  0.81294249    -0.82520
Mg94       Mg  0.66944818  0.23335111  0.72188804     1.58180
O95         O  0.84186275  0.27839837  0.83622536    -0.80850
O96         O  0.68666217  0.26768940  0.63187165    -0.82550
O97         O  0.79867227  0.77803021  0.71350360    -0.88130
C98         C  0.69434552  0.76724406  0.69171138     0.87900
Mg99       Mg  0.83121492  0.73237073  0.72140668     1.58150
O100        O  0.71312943  0.79952862  0.77689776    -0.87860
O101        O  0.78266189  0.82729011  0.74137603    -0.75190
C102        C  0.73674858  0.63344963  0.83272251     0.92950
O103        O  0.75737404  0.71607861  0.67178409    -0.75010
O104        O  0.76518153  0.63203257  0.81425231    -0.82520
Mg105      Mg  0.76665025  0.77711951  0.66686743     1.57960
C106        C  0.66865553  0.76543944  0.86654552     0.92870
O107        O  0.77875577  0.83762086  0.66016393    -0.80780
H108        H  0.73683383  0.83570559  0.80847728    -0.06120
C109        C  0.69261951  0.69400116  0.76908236     0.87810
O110        O  0.82750321  0.74226182  0.78240468    -0.75290
O111        O  0.72120831  0.78514306  0.69936114    -0.88050
O112        O  0.65993794  0.77997279  0.83681344    -0.80860
C113        C  0.63212662  0.83053776  0.73209209     0.92980
C114        C  0.76376161  0.86714582  0.66805844     0.92840
Mg115      Mg  0.73277393  0.72379344  0.83207817     1.57950
O116        O  0.72164527  0.66307270  0.84024389    -0.80780
O117        O  0.74124191  0.78459222  0.82644023    -0.75020
O118        O  0.66235548  0.83841886  0.71872475    -0.80860
O119        O  0.81297317  0.76551518  0.63131745    -0.82580
O120        O  0.83814504  0.66276458  0.77982840    -0.80890
C121        C  0.73019817  0.80787659  0.80411487     0.87270
O122        O  0.77808082  0.71520656  0.79922753    -0.88040
O123        O  0.70013938  0.72175113  0.78570386    -0.88140
O124        O  0.71644174  0.67194664  0.75886919    -0.75200
Mg125      Mg  0.72208974  0.83191481  0.73147847     1.57970
O126        O  0.62951269  0.81192475  0.76059744    -0.82570
H127        H  0.83386817  0.80983561  0.73832808    -0.06300
O128        O  0.78464010  0.70052297  0.72162529    -0.87840
H129        H  0.76018739  0.66486965  0.68996933    -0.06120
H130        H  0.81046001  0.73998356  0.83397332    -0.06300
C131        C  0.76743249  0.69253908  0.69437220     0.87250
C132        C  0.80634348  0.80521012  0.73095186     0.87840
C133        C  0.80546902  0.73244912  0.80647847     0.87880
H134        H  0.66505657  0.68881046  0.76224678    -0.06280
O135        O  0.67238527  0.75650916  0.71542870    -0.75310
Mg136      Mg  0.77726329  0.66807726  0.76770205     1.58000
H137        H  0.68997744  0.75961599  0.66413545    -0.06300
C138        C  0.82855387  0.73537366  0.63140296     0.92870
O139        O  0.86688221  0.68595542  0.73334370    -0.82530
C140        C  0.86709843  0.67031330  0.76355935     0.92930
O141        O  0.73480062  0.86826668  0.68560958    -0.82520
Mg142      Mg  0.66681351  0.76676245  0.77599484     1.58180
O143        O  0.83630177  0.71942280  0.66058196    -0.80850
O144        O  0.68675174  0.73667896  0.86786692    -0.82550
C145        C  0.49196759  0.36620993  0.30340044     0.03340
C146        C  0.46573835  0.36542567  0.33005296    -0.12810
C147        C  0.43033166  0.37631308  0.32211672     0.00840
C148        C  0.42222663  0.38803676  0.28685765    -0.11340
C149        C  0.44905067  0.38907025  0.26071793     0.03330
C150        C  0.48340569  0.37816364  0.26930231    -0.10760
H151        H  0.47307893  0.35648497  0.35662328     0.08930
H152        H  0.39543837  0.39606856  0.27959094     0.06460
H153        H  0.50393562  0.37861780  0.24879449     0.06300
C154        C  0.37117018  0.29723206  0.49358686     0.03340
C155        C  0.36820104  0.32478118  0.46801870    -0.12810
C156        C  0.37791137  0.31834349  0.43182826     0.00840
C157        C  0.38922092  0.28348478  0.42198948    -0.11340
C158        C  0.39333245  0.25687106  0.44805784     0.03330
C159        C  0.38560147  0.26447549  0.48352300    -0.10760
H160        H  0.35823500  0.35066200  0.47627487     0.08930
H161        H  0.39471361  0.27691533  0.39432001     0.06460
H162        H  0.38864251  0.24348802  0.50344341     0.06300
C163        C  0.40216516  0.37534693  0.35048599     0.03340
C164        C  0.37506723  0.40132596  0.35144122    -0.12810
C165        C  0.34886456  0.40122914  0.37846577     0.00840
C166        C  0.34998843  0.37411159  0.40481170    -0.11340
C167        C  0.37659956  0.34746292  0.40423300     0.03330
C168        C  0.40248881  0.34857413  0.37696931    -0.10760
H169        H  0.37445553  0.42184639  0.33102989     0.08930
H170        H  0.33009977  0.37367689  0.42574583     0.06460
H171        H  0.42312308  0.32837567  0.37638691     0.06300
C172        C  0.30093973  0.49052374  0.36549901     0.03340
C173        C  0.26678502  0.48169707  0.37664567    -0.12810
C174        C  0.25875362  0.44779148  0.38954418     0.00840
C175        C  0.28529890  0.42132558  0.39047116    -0.11340
C176        C  0.32041611  0.42940318  0.37875042     0.03330
C177        C  0.32800755  0.46468462  0.36669290    -0.10760
H178        H  0.24602366  0.50197839  0.37589591     0.08930
H179        H  0.27843780  0.39482130  0.39994677     0.06460
H180        H  0.35463145  0.47221564  0.35840134     0.06300
O181        O  0.96339221  0.47007142  0.54864251    -0.88130
C182        C  0.94374890  0.48223443  0.44353475     0.87900
Mg183      Mg  0.97016805  0.51504763  0.58242793     1.58150
O184        O  0.02848649  0.45084368  0.46501366    -0.87860
O185        O  0.99102631  0.42080291  0.53233765    -0.75190
C186        C  0.07871989  0.61769384  0.48989803     0.92950
O187        O  0.92114324  0.53211139  0.50779644    -0.75010
O188        O  0.06122565  0.61798993  0.51901139    -0.82520
Mg189      Mg  0.91741621  0.47089661  0.51590783     1.57960
C190        C  0.11845803  0.48714782  0.42331316     0.92870
O191        O  0.91232836  0.40995155  0.52716132    -0.80780
H192        H  0.05985710  0.41519080  0.48977716    -0.06120
C193        C  0.01846336  0.55602144  0.44483967     0.87810
O194        O  0.03102887  0.50622484  0.57936902    -0.75290
O195        O  0.95091886  0.46444722  0.47067462    -0.88050
O196        O  0.08942840  0.47167373  0.41449365    -0.80860
C197        C  0.98825222  0.42155692  0.38124761     0.92980
C198        C  0.92043212  0.38116512  0.51083931     0.92840
Mg199      Mg  0.08142222  0.52770064  0.48585811     1.57950
O200        O  0.08724049  0.58850472  0.47451080    -0.80780
O201        O  0.07708461  0.46657736  0.49417277    -0.75020
O202        O  0.97203574  0.41330550  0.41005396    -0.80860
O203        O  0.88100403  0.48123334  0.56214215    -0.82580
O204        O  0.02651517  0.58602120  0.59062746    -0.80890
C205        C  0.05528093  0.44292687  0.48288690     0.87270
O206        O  0.04770561  0.53477887  0.53061703    -0.88040
O207        O  0.03568777  0.52874751  0.45264440    -0.88140
O208        O  0.00732268  0.57773914  0.46860400    -0.75200
Mg209      Mg  0.98292346  0.41787125  0.47105441     1.57970
O210        O  0.01778265  0.43827542  0.38175295    -0.82570
H211        H  0.98707716  0.43742660  0.58395509    -0.06300
O212        O  0.97012150  0.54787865  0.53627450    -0.87840
H213        H  0.93826084  0.58354697  0.51215599    -0.06120
H214        H  0.08254761  0.51019658  0.56302219    -0.06300
C215        C  0.94304627  0.55579247  0.51882914     0.87250
C216        C  0.98042949  0.44263356  0.55626106     0.87840
C217        C  0.05502912  0.51717673  0.55784019     0.87880
H218        H  0.01195284  0.56106727  0.41708445    -0.06280
O219        O  0.96785986  0.49293920  0.42199089    -0.75310
Mg220      Mg  0.01533126  0.58118245  0.52974650     1.58000
H221        H  0.91629742  0.48949542  0.43837897    -0.06300
C222        C  0.88058407  0.51116105  0.57822470     0.92870
O223        O  0.98130291  0.56069779  0.61954346    -0.82530
C224        C  0.01080855  0.57749627  0.61964265     0.92930
O225        O  0.93631264  0.38178814  0.48084596    -0.82520
Mg226      Mg  0.02877509  0.48381343  0.41895444     1.58180
O227        O  0.90943746  0.52708770  0.58683325    -0.80850
O228        O  0.11848472  0.51655163  0.44037985    -0.82550
O229        O  0.50587953  0.93682290  0.48218237    -0.88130
C230        C  0.58299104  0.01095498  0.49691426     0.87900
Mg231      Mg  0.46370779  0.94330860  0.44504090     1.58150
O232        O  0.52016323  0.00460971  0.56530632    -0.87860
O233        O  0.51354719  0.92578707  0.53956831    -0.75190
C234        C  0.41480798  0.10976690  0.47150245     0.92950
O235        O  0.53965510  0.99132018  0.42540740    -0.75010
O236        O  0.40662153  0.08415973  0.45073379    -0.82520
Mg237      Mg  0.55847497  0.94588253  0.46262473     1.57960
C238        C  0.47235188  0.08774956  0.61075850     0.92870
O239        O  0.57610883  0.89865964  0.49806562    -0.80780
H240        H  0.49463736  0.97579018  0.60256349    -0.06120
C241        C  0.50556961  0.08129952  0.49162535     0.87810
O242        O  0.42694956  0.96085661  0.49124292    -0.75290
O243        O  0.56581242  0.98357102  0.50438700    -0.88050
O244        O  0.50280009  0.07394352  0.60452244    -0.80860
C245        C  0.61087883  0.03061594  0.58943482     0.92980
C246        C  0.59006885  0.89237259  0.52858861     0.92840
Mg247      Mg  0.44490061  0.05678521  0.53840231     1.57950
O248        O  0.42894437  0.10413842  0.50206582    -0.80780
O249        O  0.46279413  0.01107573  0.57616828    -0.75020
O250        O  0.60555799  0.00030839  0.57462411    -0.80860
O251        O  0.55253410  0.90870322  0.41484616    -0.82580
O252        O  0.39746224  0.00158871  0.42781027    -0.80890
C253        C  0.49292452  0.99645326  0.58234721     0.87270
O254        O  0.43743556  0.01848116  0.49736081    -0.88040
O255        O  0.49775001  0.06460984  0.51926458    -0.88140
O256        O  0.49042654  0.07502391  0.46168940    -0.75200
Mg257      Mg  0.55866357  0.96392172  0.55736590     1.57970
O258        O  0.58535783  0.05195432  0.59605698    -0.82570
H259        H  0.47843344  0.89883273  0.50808494    -0.06300
O260        O  0.48218663  0.99651354  0.43628327    -0.87840
H261        H  0.50697966  0.02552379  0.39871671    -0.06120
H262        H  0.40075834  0.99267809  0.52654603    -0.06300
C263        C  0.50918113  0.00503111  0.41905695     0.87250
C264        C  0.49863563  0.91945555  0.50955422     0.87840
C265        C  0.42067856  0.99106827  0.50570740     0.87880
H266        H  0.52635514  0.10134997  0.49282100    -0.06280
O267        O  0.57683327  0.04084962  0.51206705    -0.75310
Mg268      Mg  0.44451676  0.03750592  0.44423179     1.58000
H269        H  0.60330821  0.00958559  0.47644793    -0.06300
C270        C  0.52970650  0.91443924  0.39026982     0.92870
O271        O  0.41510961  0.94827684  0.40854200    -0.82530
C272        C  0.39045489  0.97079120  0.41489130     0.92930
O273        O  0.59695675  0.91743195  0.55052988    -0.82520
Mg274      Mg  0.53881341  0.05778582  0.55758204     1.58180
O275        O  0.49884401  0.92698653  0.39732547    -0.80850
O276        O  0.45062933  0.09471215  0.58555161    -0.82550
C277        C  0.62512522  0.65406584  0.59762013     0.03340
C278        C  0.59892701  0.65393761  0.62463708    -0.12810
C279        C  0.59858327  0.62746430  0.65153349     0.00840
C280        C  0.62530871  0.60099718  0.65119374    -0.11340
C281        C  0.65182778  0.60038945  0.62451415     0.03330
C282        C  0.65129866  0.62705461  0.59782268    -0.10760
H283        H  0.57866699  0.67454310  0.62467156     0.08930
H284        H  0.62538463  0.58065538  0.67179298     0.06460
H285        H  0.67138846  0.62686455  0.57707826     0.06300
C286        C  0.55088153  0.61454468  0.74100838     0.03340
C287        C  0.57795536  0.61565479  0.71513219    -0.12810
C288        C  0.57016205  0.62712195  0.67970194     0.00840
C289        C  0.53474257  0.63766313  0.67129893    -0.11340
C290        C  0.50816165  0.63658406  0.69766957     0.03330
C291        C  0.51656036  0.62517533  0.73200621    -0.10760
H292        H  0.60468179  0.60767318  0.72268113     0.08930
H293        H  0.52764893  0.64620331  0.64452575     0.06460
H294        H  0.49578905  0.62446487  0.75226357     0.06300
C295        C  0.61584675  0.74465718  0.55122902     0.03340
C296        C  0.62557728  0.73585750  0.51647540    -0.12810
C297        C  0.63559356  0.70124552  0.50738432     0.00840
C298        C  0.63501366  0.67423874  0.53355050    -0.11340
C299        C  0.62526387  0.68246746  0.56932143     0.03330
C300        C  0.61591236  0.71821477  0.57790092    -0.10760
H301        H  0.62561237  0.75655567  0.49603022     0.08930
H302        H  0.64215322  0.64720792  0.52601745     0.06460
H303        H  0.60885901  0.72556442  0.60500735     0.06300
C304        C  0.74113765  0.55260502  0.61261156     0.03340
C305        C  0.73266706  0.51867468  0.62515567    -0.12810
C306        C  0.69861217  0.51043964  0.63708682     0.00840
C307        C  0.67198894  0.53676424  0.63665080    -0.11340
C308        C  0.67996181  0.57192140  0.62455816     0.03330
C309        C  0.71508819  0.57953322  0.61251540    -0.10760
H310        H  0.75306934  0.49802039  0.62536212     0.08930
H311        H  0.64541460  0.52968016  0.64546926     0.06460
H312        H  0.72232798  0.60601953  0.60327715     0.06300
O313        O  0.45131967  0.46560818  0.03014962    -0.88130
C314        C  0.55563070  0.44293363  0.01906829     0.87900
Mg315      Mg  0.41784407  0.47352128  0.98516587     1.58150
O316        O  0.53695138  0.52885347  0.04954636    -0.87860
O317        O  0.46821309  0.49355020  0.07913749    -0.75190
C318        C  0.51307348  0.57977132  0.88220443     0.92950
O319        O  0.49127976  0.42262209  0.96836034    -0.75010
O320        O  0.48351619  0.56306982  0.88215999    -0.82520
Mg321      Mg  0.48288447  0.41870228  0.02947814     1.57960
C322        C  0.58156120  0.61728918  0.01264498     0.92870
O323        O  0.47133571  0.41336714  0.09035022    -0.80780
H324        H  0.51351371  0.56144729  0.08491355    -0.06120
C325        C  0.55639147  0.51770853  0.94424738     0.87810
O326        O  0.42289740  0.53449524  0.99391301    -0.75290
O327        O  0.52877021  0.45110397  0.03662578    -0.88050
O328        O  0.58949628  0.58806143  0.02837610    -0.80860
C329        C  0.61871710  0.48610067  0.08015530     0.92980
C330        C  0.48716188  0.42145487  0.11946766     0.92840
Mg331      Mg  0.51781964  0.58215104  0.97223509     1.57950
O332        O  0.52907009  0.58762903  0.91129339    -0.80780
O333        O  0.50957563  0.57840534  0.03337424    -0.75020
O334        O  0.58927897  0.47132623  0.08873461    -0.80860
O335        O  0.43626030  0.38297044  0.01825549    -0.82580
O336        O  0.41107592  0.53000732  0.91366483    -0.80890
C337        C  0.52013423  0.55638738  0.05721659     0.87270
O338        O  0.47186132  0.54984320  0.96527525    -0.88040
O339        O  0.54929635  0.53519090  0.97153980    -0.88140
O340        O  0.53226815  0.50746512  0.92246082    -0.75200
Mg341      Mg  0.52889303  0.48378563  0.08291741     1.57970
O342        O  0.61976604  0.51496459  0.06214618    -0.82570
H343        H  0.41672312  0.49057431  0.06235519    -0.06300
O344        O  0.46374021  0.47213224  0.95225824    -0.87840
H345        H  0.48736107  0.43970166  0.91685718    -0.06120
H346        H  0.44073915  0.58570273  0.98989338    -0.06300
C347        C  0.48067378  0.44466886  0.94455546     0.87250
C348        C  0.44414598  0.48315239  0.05737547     0.87840
C349        C  0.44503659  0.55795879  0.98291944     0.87880
H350        H  0.58379056  0.51024627  0.93920021    -0.06280
O351        O  0.57776036  0.46636077  0.00799786    -0.75310
Mg352      Mg  0.47154711  0.51728782  0.91891804     1.58000
H353        H  0.55994039  0.41516727  0.01219322    -0.06300
C354        C  0.41947595  0.38353821  0.98869219     0.92870
O355        O  0.38098604  0.48575666  0.93960484    -0.82530
C356        C  0.38174301  0.51503889  0.92229141     0.92930
O357        O  0.51679929  0.43800527  0.11957822    -0.82520
Mg358      Mg  0.58285120  0.52731496  0.01658765     1.58180
O359        O  0.41140300  0.41286215  0.97323324    -0.80850
O360        O  0.56460986  0.61763818  0.98316708    -0.82550
O361        O  0.47185840  0.45031486  0.53521642    -0.88130
C362        C  0.48240473  0.55516888  0.55678523     0.87900
Mg363      Mg  0.51720949  0.41713574  0.52816316     1.58150
O364        O  0.45145612  0.53510661  0.47133887    -0.87860
O365        O  0.42261990  0.46644457  0.50742983    -0.75190
C366        C  0.61776338  0.51230520  0.41978184     0.92950
O367        O  0.53323586  0.49130575  0.57808305    -0.75010
O368        O  0.61869656  0.48321004  0.43740993    -0.82520
Mg369      Mg  0.47234921  0.48233868  0.58181630     1.57960
C370        C  0.48708089  0.57890140  0.38205371     0.92870
O371        O  0.41200672  0.47052406  0.58749149    -0.80780
H372        H  0.41607761  0.51067288  0.43942408    -0.06120
C373        C  0.55628656  0.55598447  0.48151992     0.87810
O374        O  0.50842103  0.42085522  0.46710128    -0.75290
O375        O  0.46496443  0.52800276  0.54905988    -0.88050
O376        O  0.47185957  0.58726002  0.41135426    -0.80860
C377        C  0.42129146  0.61757914  0.51334300     0.92980
C378        C  0.38275845  0.48600715  0.57968957     0.92840
Mg379      Mg  0.52807750  0.51565574  0.41791688     1.57950
O380        O  0.58842410  0.52745996  0.41160874    -0.80780
O381        O  0.46732358  0.50676491  0.42227616    -0.75020
O382        O  0.41301990  0.58827175  0.52878314    -0.80860
O383        O  0.48306186  0.43566539  0.61752517    -0.82580
O384        O  0.58849846  0.41040351  0.47185973    -0.80890
C385        C  0.44368363  0.51764704  0.44418321     0.87270
O386        O  0.53600919  0.47030576  0.45103035    -0.88040
O387        O  0.52903708  0.54821156  0.46430020    -0.88140
O388        O  0.57825257  0.53224287  0.49220997    -0.75200
Mg389      Mg  0.41855345  0.52745409  0.51664016     1.57970
O390        O  0.43809961  0.61797550  0.48383083    -0.82570
H391        H  0.43991322  0.41501257  0.51068270    -0.06300
O392        O  0.54945557  0.46361947  0.52877737    -0.87840
H393        H  0.58457624  0.48799732  0.56103108    -0.06120
H394        H  0.51210093  0.43799461  0.41560904    -0.06300
C395        C  0.55703182  0.48090441  0.55609700     0.87250
C396        C  0.44466875  0.44264226  0.51784872     0.87840
C397        C  0.51895022  0.44290409  0.44329968     0.87880
H398        H  0.56110824  0.58367144  0.48841670    -0.06280
O399        O  0.49303365  0.57720447  0.53301027    -0.75310
Mg400      Mg  0.58243364  0.47125165  0.48345671     1.58000
H401        H  0.48950806  0.55987070  0.58444742    -0.06300
C402        C  0.51294218  0.41973594  0.61797869     0.92870
O403        O  0.56322589  0.38078242  0.51680253    -0.82530
C404        C  0.58050175  0.38115417  0.48754860     0.92930
O405        O  0.38210400  0.51540092  0.56253602    -0.82520
Mg406      Mg  0.48392369  0.58143457  0.47201435     1.58180
O407        O  0.52916282  0.41180934  0.58909500    -0.80850
O408        O  0.51628688  0.56169372  0.38152244    -0.82550
O409        O  0.97161168  0.95062867  0.03470025    -0.88130
C410        C  0.97980801  0.05538326  0.05868581     0.87900
Mg411      Mg  0.01729448  0.91819737  0.02694706     1.58150
O412        O  0.95154975  0.03677513  0.97192846    -0.87860
O413        O  0.92296856  0.96653500  0.00581657    -0.75190
C414        C  0.11952182  0.01671567  0.92328659     0.92950
O415        O  0.03194343  0.99178347  0.07863222    -0.75010
O416        O  0.11936007  0.98680776  0.93947744    -0.82520
Mg417      Mg  0.97122013  0.98196092  0.08184033     1.57960
C418        C  0.98884303  0.08377465  0.88482439     0.92870
O419        O  0.91088554  0.96959870  0.08743005    -0.80780
H420        H  0.91731056  0.01320032  0.93816513    -0.06120
C421        C  0.05599459  0.05863146  0.98514826     0.87810
O422        O  0.00904676  0.92401334  0.96590487    -0.75290
O423        O  0.96307753  0.02808822  0.04990227    -0.88050
O424        O  0.97234206  0.09077716  0.91378988    -0.80860
C425        C  0.91790492  0.11727101  0.01484189     0.92980
C426        C  0.88138015  0.98428191  0.07895138     0.92840
Mg427      Mg  0.02984873  0.02048568  0.91973072     1.57950
O428        O  0.09058552  0.03288522  0.91550331    -0.80780
O429        O  0.96900394  0.01088988  0.92206331    -0.75020
O430        O  0.90967003  0.08733719  0.02901453    -0.80860
O431        O  0.98288662  0.93491979  0.11688156    -0.82580
O432        O  0.08936658  0.91370544  0.97135403    -0.80890
C433        C  0.94468559  0.02036058  0.94389182     0.87270
O434        O  0.03691046  0.97386517  0.95145593    -0.88040
O435        O  0.02912040  0.05119785  0.96721021    -0.88140
O436        O  0.07807132  0.03472540  0.99524510    -0.75200
Mg437      Mg  0.91750472  0.02709014  0.01605376     1.57970
O438        O  0.93681912  0.11924933  0.98668894    -0.82570
H439        H  0.94069224  0.91528109  0.00898319    -0.06300
O440        O  0.04918511  0.96490089  0.02923090    -0.87840
H441        H  0.08355237  0.98919973  0.06233268    -0.06120
H442        H  0.01305845  0.94270616  0.91497394    -0.06300
C443        C  0.05616215  0.98186118  0.05690636     0.87250
C444        C  0.94492429  0.94286678  0.01663101     0.87840
C445        C  0.01977953  0.94675888  0.94283418     0.87880
H446        H  0.06044730  0.08610279  0.99307387    -0.06280
O447        O  0.99087486  0.07802561  0.03570422    -0.75310
Mg448      Mg  0.08269823  0.97396180  0.98467522     1.58000
H449        H  0.98602325  0.05961144  0.08663778    -0.06300
C450        C  0.01255962  0.91850120  0.11692316     0.92870
O451        O  0.06343034  0.88216906  0.01458882    -0.82530
C452        C  0.08134976  0.88385225  0.98576963     0.92930
O453        O  0.88008532  0.01288140  0.06051811    -0.82520
Mg454      Mg  0.98328423  0.08362784  0.97469202     1.58180
O455        O  0.02876657  0.91118961  0.08784740    -0.80850
O456        O  0.01890332  0.06809478  0.88500078    -0.82550
C457        C  0.70124487  0.00755807  0.36024310     0.03340
C458        C  0.67442491  0.03365439  0.36217017    -0.12810
C459        C  0.68290181  0.06916583  0.37268668     0.00840
C460        C  0.71861459  0.07722998  0.38253382    -0.11340
C461        C  0.74497229  0.05060488  0.38098399     0.03330
C462        C  0.73612531  0.01650405  0.36904410    -0.10760
H463        H  0.64723125  0.02613221  0.35588533     0.08930
H464        H  0.72599709  0.10378854  0.39142507     0.06460
H465        H  0.75659518  0.99594690  0.36822877     0.06300
C466        C  0.60029739  0.12412742  0.34800273     0.03340
C467        C  0.62706061  0.09765573  0.34787827    -0.12810
C468        C  0.65454952  0.09741849  0.37363719     0.00840
C469        C  0.65481764  0.12426450  0.40009863    -0.11340
C470        C  0.62832896  0.15100290  0.40105243     0.03330
C471        C  0.60135235  0.15064674  0.37475843    -0.10760
H472        H  0.62654666  0.07704658  0.32759074     0.08930
H473        H  0.67570406  0.12431867  0.42010448     0.06460
H474        H  0.58100385  0.17112579  0.37520580     0.06300
C475        C  0.50952267  0.13587158  0.30255108     0.03340
C476        C  0.51700477  0.12319256  0.26850586    -0.12810
C477        C  0.55076947  0.11100957  0.25946422     0.00840
C478        C  0.57820757  0.11170058  0.28500489    -0.11340
C479        C  0.57129960  0.12400090  0.32028772     0.03330
C480        C  0.53637851  0.13610770  0.32875389    -0.10760
H481        H  0.49601214  0.12302600  0.24840421     0.08930
H482        H  0.60455486  0.10283260  0.27723094     0.06460
H483        H  0.52987867  0.14547205  0.35535310     0.06300
C484        C  0.63959711  0.19713943  0.49155963     0.03340
C485        C  0.62819483  0.23151243  0.48332813    -0.12810
C486        C  0.61686048  0.24048748  0.44911293     0.00840
C487        C  0.61715750  0.21455569  0.42198716    -0.11340
C488        C  0.62860365  0.17912090  0.42960334     0.03330
C489        C  0.63983106  0.17070566  0.46492932    -0.10760
H490        H  0.62792894  0.25177656  0.50417799     0.08930
H491        H  0.60860052  0.22207632  0.39533870     0.06460
H492        H  0.64828702  0.14389114  0.47189948     0.06300
C493        C  0.29908960  0.98952931  0.64072067     0.03340
C494        C  0.32586543  0.96328199  0.63994396    -0.12810
C495        C  0.31704999  0.92705773  0.63271218     0.00840
C496        C  0.28091547  0.91813338  0.62573757    -0.11340
C497        C  0.25440695  0.94464591  0.62725400     0.03330
C498        C  0.26373877  0.97972908  0.63541630    -0.10760
H499        H  0.35337534  0.97127609  0.64382417     0.08930
H500        H  0.27337216  0.89096105  0.61908002     0.06460
H501        H  0.24322634  0.00025629  0.63568484     0.06300
C502        C  0.40257848  0.87517114  0.65328977     0.03340
C503        C  0.37457971  0.90018430  0.65531890    -0.12810
C504        C  0.34566232  0.89913807  0.63118326     0.00840
C505        C  0.34480699  0.87201283  0.60497418    -0.11340
C506        C  0.37227640  0.84638285  0.60254367     0.03330
C507        C  0.40090869  0.84821756  0.62698205    -0.10760
H508        H  0.37569461  0.92105543  0.67538173     0.08930
H509        H  0.32286990  0.87105729  0.58612933     0.06460
H510        H  0.42229960  0.82889231  0.62510326     0.06300
C511        C  0.46141024  0.89594452  0.73444042     0.03340
C512        C  0.43085081  0.88893526  0.71354746    -0.12810
C513        C  0.43456101  0.87906112  0.67703056     0.00840
C514        C  0.46929095  0.87209179  0.66376955    -0.11340
C515        C  0.49926846  0.88031836  0.68472721     0.03330
C516        C  0.49454116  0.89700512  0.71755496    -0.10760
H517        H  0.40470474  0.88945912  0.72581428     0.08930
H518        H  0.47325005  0.86024003  0.63766340     0.06460
H519        H  0.51806809  0.90370894  0.73318696     0.06300
C520        C  0.36001521  0.80001291  0.51211825     0.03340
C521        C  0.35960207  0.82644843  0.53884821    -0.12810
C522        C  0.37168666  0.81826552  0.57398220     0.00840
C523        C  0.38387547  0.78307158  0.58142582    -0.11340
C524        C  0.38399703  0.75706788  0.55435250     0.03330
C525        C  0.37216722  0.76586891  0.52024686    -0.10760
H526        H  0.35036415  0.85308095  0.53216901     0.08930
H527        H  0.39307996  0.77584801  0.60795116     0.06460
H528        H  0.37245340  0.74557069  0.49942960     0.06300
O529        O  0.54836139  0.03510224  0.03002073    -0.88130
C530        C  0.44415485  0.05761253  0.01628391     0.87900
Mg531      Mg  0.58295333  0.02714893  0.98604680     1.58150
O532        O  0.46248526  0.97210485  0.04806941    -0.87860
O533        O  0.53035895  0.00779249  0.07896966    -0.75190
C534        C  0.49132008  0.91835459  0.88209452     0.92950
O535        O  0.50982200  0.07799113  0.96709426    -0.75010
O536        O  0.52010666  0.93631867  0.88224386    -0.82520
Mg537      Mg  0.51685691  0.08198185  0.02842158     1.57960
C538        C  0.41965049  0.88319648  0.01085773     0.92870
O539        O  0.52741821  0.08684325  0.08969260    -0.80780
H540        H  0.48549183  0.93985253  0.08416463    -0.06120
C541        C  0.44534180  0.98252594  0.94198052     0.87810
O542        O  0.57786322  0.96621760  0.99498734    -0.75290
O543        O  0.47071778  0.04954267  0.03443375    -0.88050
O544        O  0.41120082  0.91234886  0.02636607    -0.80860
C545        C  0.37980536  0.01414132  0.07655384     0.92980
C546        C  0.51053422  0.07899668  0.11825253     0.92840
Mg547      Mg  0.48334176  0.91860502  0.97155912     1.57950
O548        O  0.47373869  0.91218936  0.91057358    -0.80780
O549        O  0.49037947  0.92265679  0.03283770    -0.75020
O550        O  0.40894161  0.02939223  0.08540439    -0.80860
O551        O  0.56363613  0.11793122  0.01811049    -0.82580
O552        O  0.59133318  0.97071284  0.91484294    -0.80890
C553        C  0.47932732  0.94473349  0.05630121     0.87270
O554        O  0.52945599  0.95082749  0.96542156    -0.88040
O555        O  0.45191500  0.96540584  0.96968459    -0.88140
O556        O  0.46989506  0.99247434  0.92059424    -0.75200
Mg557      Mg  0.46951878  0.01745958  0.08108172     1.57970
O558        O  0.37940639  0.98536565  0.05843002    -0.82570
H559        H  0.58219733  0.01035647  0.06336244    -0.06300
O560        O  0.53777286  0.02847872  0.95180622    -0.87840
H561        H  0.51485466  0.06085307  0.91574937    -0.06120
H562        H  0.56010354  0.91499831  0.99082649    -0.06300
C563        C  0.52095834  0.05591802  0.94361767     0.87250
C564        C  0.55490974  0.01779892  0.05761636     0.87840
C565        C  0.55594206  0.94272737  0.98364531     0.87880
H566        H  0.41804001  0.98986072  0.93616506    -0.06280
O567        O  0.42221284  0.03410082  0.00497729    -0.75310
Mg568      Mg  0.53075541  0.98289856  0.91869191     1.58000
H569        H  0.43992987  0.08534275  0.00914643    -0.06300
C570        C  0.58171860  0.11720741  0.98935841     0.92870
O571        O  0.62090666  0.01483767  0.94158850    -0.82530
C572        C  0.62048543  0.98577086  0.92396532     0.92930
O573        O  0.48013224  0.06402403  0.11709851    -0.82520
Mg574      Mg  0.41735717  0.97313042  0.01392842     1.58180
O575        O  0.58998606  0.08780292  0.97423470    -0.80850
O576        O  0.43623721  0.88316613  0.98125864    -0.82550
C577        C  0.63425462  0.30275882  0.99279459     0.03340
C578        C  0.62569864  0.26764337  0.98421510    -0.12810
C579        C  0.61652871  0.25792319  0.94954384     0.00840
C580        C  0.61640415  0.28386939  0.92231574    -0.11340
C581        C  0.62581909  0.31980790  0.93026050     0.03330
C582        C  0.63477053  0.32895779  0.96595646    -0.10760
H583        H  0.62556395  0.24747503  0.00519683     0.08930
H584        H  0.60915229  0.27606912  0.89536277     0.06460
H585        H  0.64145126  0.35625775  0.97302786     0.06300
C586        C  0.62573243  0.34787539  0.90176629     0.03340
C587        C  0.59893765  0.34833843  0.87537879    -0.12810
C588        C  0.59805444  0.37513599  0.84886615     0.00840
C589        C  0.62476502  0.40176602  0.84902685    -0.11340
C590        C  0.65213744  0.40167591  0.87490448     0.03330
C591        C  0.65220931  0.37461935  0.90116992    -0.10760
H592        H  0.57862560  0.32773530  0.87553820     0.08930
H593        H  0.62438812  0.42256550  0.82884830     0.06460
H594        H  0.67297537  0.37439593  0.92133905     0.06300
C595        C  0.50792322  0.36303712  0.80243616     0.03340
C596        C  0.51668833  0.37268899  0.76763270    -0.12810
C597        C  0.55084906  0.38416621  0.75883615     0.00840
C598        C  0.57750858  0.38510442  0.78514929    -0.11340
C599        C  0.56955546  0.37487027  0.82079444     0.03330
C600        C  0.53417509  0.36422341  0.82927407    -0.10760
H601        H  0.49614618  0.37229029  0.74708483     0.08930
H602        H  0.60410119  0.39365630  0.77775603     0.06460
H603        H  0.52696895  0.35711072  0.85642008     0.06300
C604        C  0.69983810  0.49179641  0.86675040     0.03340
C605        C  0.67272644  0.46578637  0.86625442    -0.12810
C606        C  0.68079464  0.42958486  0.87448477     0.00840
C607        C  0.71654510  0.42027188  0.88277739    -0.11340
C608        C  0.74332446  0.44649973  0.88249016     0.03330
C609        C  0.73467337  0.48174625  0.87445938    -0.10760
H610        H  0.64564466  0.47383883  0.86015980     0.08930
H611        H  0.72362913  0.39291764  0.88921091     0.06460
H612        H  0.75554558  0.50194876  0.87461768     0.06300
C613        C  0.38689359  0.74252550  0.05104100     0.03340
C614        C  0.38687890  0.71624829  0.07789321    -0.12810
C615        C  0.37616618  0.68070977  0.06976327     0.00840
C616        C  0.36551905  0.67246577  0.03426388    -0.11340
C617        C  0.36559332  0.69917025  0.00789987     0.03330
C618        C  0.37625933  0.73367350  0.01656326    -0.10760
H619        H  0.39487702  0.72359177  0.10475747     0.08930
H620        H  0.35748797  0.64559414  0.02699917     0.06460
H621        H  0.37625022  0.75419450  0.99592289     0.06300
C622        C  0.49218511  0.63783659  0.19955669     0.03340
C623        C  0.48287921  0.62793706  0.23416541    -0.12810
C624        C  0.44857047  0.61658187  0.24238913     0.00840
C625        C  0.42241698  0.61546803  0.21559344    -0.11340
C626        C  0.43100387  0.62557155  0.18004969     0.03330
C627        C  0.46648697  0.63633679  0.17221394    -0.10760
H628        H  0.50303119  0.62836046  0.25509699     0.08930
H629        H  0.39568055  0.60705391  0.22260105     0.06460
H630        H  0.47416800  0.64351709  0.14522053     0.06300
C631        C  0.34896317  0.59899631  0.12507765     0.03340
C632        C  0.34938958  0.62585089  0.09860322    -0.12810
C633        C  0.37609269  0.65238241  0.09806843     0.00840
C634        C  0.40269590  0.65176449  0.12468381    -0.11340
C635        C  0.40298481  0.62525939  0.15149047     0.03330
C636        C  0.37601631  0.59894861  0.15128056    -0.10760
H637        H  0.32878635  0.62613531  0.07829804     0.08930
H638        H  0.42323765  0.67211948  0.12459817     0.06460
H639        H  0.37595313  0.57842189  0.17172468     0.06300
C640        C  0.30071576  0.50949182  0.13549363     0.03340
C641        C  0.32788451  0.53536813  0.13546783    -0.12810
C642        C  0.32017732  0.57120601  0.12547773     0.00840
C643        C  0.28476500  0.58012132  0.11537106    -0.11340
C644        C  0.25800189  0.55388145  0.11570370     0.03330
C645        C  0.26618302  0.51918872  0.12622730    -0.10760
H646        H  0.35476582  0.52741193  0.14249862     0.08930
H647        H  0.27791111  0.60709941  0.10732909     0.06460
H648        H  0.24532405  0.49896834  0.12621753     0.06300
O649        O  0.02869893  0.54891861  0.03366585    -0.88130
C650        C  0.01911910  0.44471094  0.05720449     0.87900
Mg651      Mg  0.98256277  0.58124019  0.02660900     1.58150
O652        O  0.04972244  0.46315972  0.97119708    -0.87860
O653        O  0.07791675  0.53277481  0.00598985    -0.75190
C654        C  0.88313323  0.48370027  0.91878666     0.92950
O655        O  0.96833636  0.50795395  0.07777207    -0.75010
O656        O  0.88185979  0.51260869  0.93666178    -0.82520
Mg657      Mg  0.02924635  0.51787316  0.08091184     1.57960
C658        C  0.01434416  0.41650481  0.88283734     0.92870
O659        O  0.08972245  0.53044665  0.08576105    -0.80780
H660        H  0.08487476  0.48762464  0.93913629    -0.06120
C661        C  0.94503186  0.44125913  0.98115611     0.87810
O662        O  0.99090278  0.57718133  0.96552695    -0.75290
O663        O  0.03664543  0.47168431  0.04905292    -0.88050
O664        O  0.02870515  0.40866889  0.91274658    -0.80860
C665        C  0.08046417  0.38177913  0.01502849     0.92980
C666        C  0.11889836  0.51476187  0.07811891     0.92840
Mg667      Mg  0.97306346  0.48163946  0.91714256     1.57950
O668        O  0.91267108  0.46900708  0.91043959    -0.80780
O669        O  0.03359470  0.49121119  0.92192799    -0.75020
O670        O  0.08883815  0.41138885  0.02976498    -0.80860
O671        O  0.01846251  0.56527678  0.11559104    -0.82580
O672        O  0.91075199  0.58613796  0.97055260    -0.80890
C673        C  0.05732602  0.48047184  0.94388609     0.87270
O674        O  0.96424761  0.52701144  0.95003587    -0.88040
O675        O  0.97216155  0.44926010  0.96393399    -0.88140
O676        O  0.92295331  0.46479921  0.99187495    -0.75200
Mg677      Mg  0.08272855  0.47190228  0.01639850     1.57970
O678        O  0.06323684  0.38068211  0.98574743    -0.82570
H679        H  0.05998471  0.58405457  0.00807131    -0.06300
O680        O  0.95123178  0.53413803  0.02783971    -0.87840
H681        H  0.91681772  0.50975080  0.06080130    -0.06120
H682        H  0.98722507  0.55956412  0.91422108    -0.06300
C683        C  0.94418167  0.51727594  0.05557705     0.87250
C684        C  0.05562828  0.55653424  0.01592241     0.87840
C685        C  0.98067770  0.55471695  0.94198483     0.87880
H686        H  0.94050566  0.41354023  0.98816607    -0.06280
O687        O  0.00835263  0.42238150  0.03379843    -0.75310
Mg688      Mg  0.91801767  0.52554863  0.98262845     1.58000
H689        H  0.01199944  0.44047538  0.08492514    -0.06300
C690        C  0.98781429  0.57963972  0.11641952     0.92870
O691        O  0.93568196  0.61660091  0.01516714    -0.82530
C692        C  0.91829821  0.61562718  0.98594806     0.92930
O693        O  0.11929124  0.48482094  0.06204161    -0.82520
Mg694      Mg  0.01733143  0.41668531  0.97297039     1.58180
O695        O  0.97085012  0.58665709  0.08765780    -0.80850
O696        O  0.98663491  0.43597941  0.88052966    -0.82550
C697        C  0.90295947  0.12460378  0.65329173     0.03340
C698        C  0.90262645  0.15078774  0.62615268    -0.12810
C699        C  0.87573274  0.15136585  0.59981274     0.00840
C700        C  0.84875853  0.12518673  0.60096810    -0.11340
C701        C  0.84844354  0.09852784  0.62758647     0.03330
C702        C  0.87572821  0.09848609  0.65362971    -0.10760
H703        H  0.92344495  0.17085869  0.62554747     0.08930
H704        H  0.82793165  0.12541981  0.58087363     0.06460
H705        H  0.87575388  0.07805025  0.67418475     0.06300
C706        C  0.95010819  0.11779042  0.74371528     0.03340
C707        C  0.92340875  0.11626570  0.71739172    -0.12810
C708        C  0.93152982  0.12501061  0.68137180     0.00840
C709        C  0.96717939  0.13441443  0.67249912    -0.11340
C710        C  0.99352740  0.13586792  0.69925326     0.03330
C711        C  0.98452434  0.12808633  0.73444370    -0.10760
H712        H  0.89665294  0.10848390  0.72504209     0.08930
H713        H  0.97453069  0.14023059  0.64508519     0.06460
H714        H  0.00511457  0.12881268  0.75493610     0.06300
C715        C  0.80163052  0.00797046  0.63339489     0.03340
C716        C  0.76702309  0.01743088  0.62395894    -0.12810
C717        C  0.75796086  0.05271465  0.61661406     0.00840
C718        C  0.78422780  0.07946560  0.61837972    -0.11340
C719        C  0.81990818  0.07050228  0.62749232     0.03330
C720        C  0.82822384  0.03436482  0.63547623    -0.10760
H721        H  0.74650984  0.99689655  0.62283822     0.08930
H722        H  0.77687628  0.10691117  0.61267789     0.06460
H723        H  0.85514232  0.02664554  0.64265009     0.06300
C724        C  0.86549556  0.19633792  0.50867311     0.03340
C725        C  0.86508289  0.17022932  0.53564077    -0.12810
C726        C  0.87591067  0.17909755  0.57094703     0.00840
C727        C  0.88709337  0.21462375  0.57829822    -0.11340
C728        C  0.88742410  0.24029170  0.55088988     0.03330
C729        C  0.87645223  0.23091113  0.51663479    -0.10760
H730        H  0.85676668  0.14329226  0.52896402     0.08930
H731        H  0.89535935  0.22238873  0.60496409     0.06460
H732        H  0.87659245  0.25100898  0.49558601     0.06300
C733        C  0.00498018  0.13053429  0.19695059     0.03340
C734        C  0.03153061  0.13120807  0.17053508    -0.12810
C735        C  0.06736050  0.12307633  0.17960902     0.00840
C736        C  0.07588253  0.11530392  0.21581107    -0.11340
C737        C  0.04904170  0.11553444  0.24199445     0.03330
C738        C  0.01394106  0.12209480  0.23204241    -0.10760
H739        H  0.02426503  0.13798906  0.14329630     0.08930
H740        H  0.10317072  0.11000073  0.22375239     0.06460
H741        H  0.99325313  0.12204124  0.25238688     0.06300
C742        C  0.13740830  0.19951330  0.00959229     0.03340
C743        C  0.12854411  0.23421859  0.01960978    -0.12810
C744        C  0.11694464  0.24207931  0.05399556     0.00840
C745        C  0.11450892  0.21472690  0.07958949    -0.11340
C746        C  0.12383466  0.17912231  0.07042162     0.03330
C747        C  0.13483342  0.17171355  0.03482368    -0.10760
H748        H  0.12972681  0.25554282  0.99985055     0.08930
H749        H  0.10578265  0.22133492  0.10639011     0.06460
H750        H  0.14138247  0.14469247  0.02672805     0.06300
C751        C  0.14960181  0.09670114  0.12541671     0.03340
C752        C  0.12280880  0.09714365  0.15182335    -0.12810
C753        C  0.09577998  0.12327729  0.15158449     0.00840
C754        C  0.09605495  0.14960707  0.12457276    -0.11340
C755        C  0.12276013  0.15011005  0.09807172     0.03330
C756        C  0.14912428  0.12329984  0.09864234    -0.10760
H757        H  0.12292692  0.07708518  0.17273838     0.08930
H758        H  0.07549229  0.16992651  0.12433540     0.06460
H759        H  0.16955862  0.12334972  0.07823643     0.06300
C760        C  0.19781237  0.00745848  0.13801562     0.03340
C761        C  0.23189507  0.01647002  0.12664131    -0.12810
C762        C  0.23991723  0.05074510  0.11482098     0.00840
C763        C  0.21335837  0.07712538  0.11455463    -0.11340
C764        C  0.17821129  0.06874136  0.12593212     0.03330
C765        C  0.17071095  0.03334723  0.13761869    -0.10760
H766        H  0.25266105  0.99618571  0.12670710     0.08930
H767        H  0.22024287  0.10383551  0.10569165     0.06460
H768        H  0.14413575  0.02577106  0.14603498     0.06300
O769        O  0.23190429  0.18392943  0.74819433    -0.88130
C770        C  0.24694603  0.25669003  0.67016867     0.87900
Mg771      Mg  0.19356450  0.19225333  0.78905832     1.58150
O772        O  0.31462799  0.25247988  0.73391983    -0.87860
O773        O  0.28933402  0.17343922  0.74225240    -0.75190
C774        C  0.22137522  0.36020742  0.83703518     0.92950
O775        O  0.17579386  0.23681052  0.71156213    -0.75010
O776        O  0.19856996  0.33565664  0.84292065    -0.82520
Mg777      Mg  0.21360924  0.19095921  0.69484037     1.57960
C778        C  0.36032125  0.33629271  0.78050204     0.92870
O779        O  0.24974651  0.14338055  0.67834953    -0.80780
H780        H  0.35160117  0.22411071  0.76025046    -0.06120
C781        C  0.24199505  0.33036557  0.74640359     0.87810
O782        O  0.23887165  0.21063974  0.82675238    -0.75290
O783        O  0.25481440  0.22933811  0.68733493    -0.88050
O784        O  0.35405033  0.32252899  0.74988845    -0.80860
C785        C  0.33898552  0.27651926  0.64221125     0.92980
C786        C  0.28034887  0.13807989  0.66439415     0.92840
Mg787      Mg  0.28765338  0.30562537  0.80835529     1.57950
O788        O  0.25218470  0.35305020  0.82450744    -0.80780
O789        O  0.32498954  0.25964926  0.79144726    -0.75020
O790        O  0.32556813  0.24594675  0.64936924    -0.80860
O791        O  0.16663966  0.15288192  0.70135269    -0.82580
O792        O  0.17588842  0.25227317  0.85377566    -0.80890
C793        C  0.33144146  0.24475429  0.76149040     0.87270
O794        O  0.24592870  0.26809786  0.81551506    -0.88040
O795        O  0.26906604  0.31329030  0.75502238    -0.88140
O796        O  0.21161264  0.32413816  0.76033954    -0.75200
Mg797      Mg  0.30768576  0.21070271  0.69646787     1.57970
O798        O  0.34441689  0.29948371  0.66669767    -0.82570
H799        H  0.25746721  0.14701737  0.77742297    -0.06300
O800        O  0.18617990  0.24505441  0.76895353    -0.87840
H801        H  0.14907841  0.27282591  0.74215441    -0.06120
H802        H  0.27385248  0.24251989  0.85341662    -0.06300
C803        C  0.16934965  0.25227488  0.74125307     0.87250
C804        C  0.25917301  0.16711559  0.75664832     0.87840
C805        C  0.25352297  0.24082180  0.83292100     0.87880
H806        H  0.24405316  0.35048563  0.72568281    -0.06280
O807        O  0.26149208  0.28691329  0.67643599    -0.75310
Mg808      Mg  0.19313100  0.28729083  0.80621205     1.58000
H809        H  0.22647863  0.25502038  0.64981012    -0.06300
C810        C  0.14106288  0.15998564  0.72251639     0.92870
O811        O  0.15580643  0.19915192  0.83624258    -0.82530
C812        C  0.16255773  0.22166573  0.86087185     0.92930
O813        O  0.30222496  0.16346534  0.65888569    -0.82520
Mg814      Mg  0.30692871  0.30540252  0.71399874     1.58180
O815        O  0.14639337  0.17491894  0.75278834    -0.80850
O816        O  0.33530782  0.34297615  0.80246702    -0.82550
O817        O  0.69983311  0.22131198  0.21372973    -0.88130
C818        C  0.80472703  0.23100304  0.19320980     0.87900
Mg819      Mg  0.66719540  0.26648500  0.22290636     1.58150
O820        O  0.78447865  0.19880130  0.27826060    -0.87860
O821        O  0.71524218  0.17160002  0.24131888    -0.75190
C822        C  0.76276503  0.36480182  0.33295776     0.92950
O823        O  0.74209296  0.28400384  0.17375833    -0.75010
O824        O  0.73331401  0.36570303  0.31611995    -0.82520
Mg825      Mg  0.73263542  0.22336099  0.16750346     1.57960
C826        C  0.82954248  0.23301167  0.36807315     0.92870
O827        O  0.72045506  0.16317477  0.15904345    -0.80780
H828        H  0.76042751  0.16283186  0.30983950    -0.06120
C829        C  0.80595667  0.30408614  0.27005193     0.87810
O830        O  0.67156112  0.25580764  0.28361596    -0.75290
O831        O  0.77740459  0.21377372  0.20060647    -0.88050
O832        O  0.83756881  0.21812929  0.33844900    -0.80860
C833        C  0.86565209  0.16740177  0.23535294     0.92980
C834        C  0.73464995  0.13321509  0.16697629     0.92840
Mg835      Mg  0.76602689  0.27479899  0.33325418     1.57950
O836        O  0.77824854  0.33535655  0.34038462    -0.80780
O837        O  0.75691925  0.21395058  0.32794959    -0.75020
O838        O  0.83605332  0.15962379  0.22041661    -0.80860
O839        O  0.68742751  0.23729381  0.13092749    -0.82580
O840        O  0.66102442  0.33661366  0.28117405    -0.80890
C841        C  0.76740375  0.19058432  0.30548788     0.87270
O842        O  0.72071489  0.28333996  0.30039809    -0.88040
O843        O  0.79827352  0.27641989  0.28676113    -0.88140
O844        O  0.78227369  0.32644985  0.26007395    -0.75200
Mg845      Mg  0.77580478  0.16665811  0.23238690     1.57970
O846        O  0.86711603  0.18520235  0.26433352    -0.82570
H847        H  0.66414511  0.18915772  0.23729830    -0.06300
O848        O  0.71361440  0.29888381  0.22299072    -0.87840
H849        H  0.73845254  0.33497903  0.19219112    -0.06120
H850        H  0.68883868  0.25799221  0.33513140    -0.06300
C851        C  0.73123407  0.30723274  0.19616220     0.87250
C852        C  0.69180979  0.19383506  0.23057602     0.87840
C853        C  0.69355514  0.26579297  0.30766167     0.87880
H854        H  0.83350918  0.30898956  0.26304193    -0.06280
O855        O  0.82665932  0.24125317  0.21717822    -0.75310
Mg856      Mg  0.72147922  0.33063718  0.26917555     1.58000
H857        H  0.80956261  0.23843186  0.16565820    -0.06300
C858        C  0.66928237  0.26593782  0.13287051     0.92870
O859        O  0.63108414  0.31214950  0.23599861    -0.82530
C860        C  0.63176057  0.32900618  0.26550931     0.92930
O861        O  0.76266487  0.13097256  0.18606013    -0.82520
Mg862      Mg  0.83104686  0.23108377  0.27785652     1.58180
O863        O  0.66085681  0.27995617  0.16274689    -0.80850
O864        O  0.81188700  0.26200517  0.36930491    -0.82550
C865        C  0.13358730  0.70089558  0.99196070     0.03340
C866        C  0.13373563  0.67362283  0.96617609    -0.12810
C867        C  0.12551914  0.68158824  0.92997299     0.00840
C868        C  0.11710313  0.71739356  0.92047977    -0.11340
C869        C  0.11774774  0.74439461  0.94656973     0.03330
C870        C  0.12643548  0.73588526  0.98169995    -0.10760
H871        H  0.13935731  0.64641941  0.97446136     0.08930
H872        H  0.11015360  0.72430247  0.89319456     0.06460
H873        H  0.12650153  0.75688846  0.00180277     0.06300
C874        C  0.12501948  0.65252363  0.90250080     0.03340
C875        C  0.09868622  0.65195870  0.87561473    -0.12810
C876        C  0.09766019  0.62455181  0.84976243     0.00840
C877        C  0.12398828  0.59763844  0.85094852    -0.11340
C878        C  0.15094167  0.59774797  0.87727420     0.03330
C879        C  0.15087700  0.62521201  0.90311217    -0.10760
H880        H  0.07887836  0.67298845  0.87489879     0.08930
H881        H  0.12363611  0.57658007  0.83112588     0.06460
H882        H  0.17116799  0.62551587  0.92374491     0.06300
C883        C  0.05004633  0.61034098  0.76045140     0.03340
C884        C  0.01610367  0.62260165  0.76859782    -0.12810
C885        C  0.00799372  0.63609322  0.80218728     0.00840
C886        C  0.03428111  0.63661028  0.82897260    -0.11340
C887        C  0.06927601  0.62409775  0.82147619     0.03330
C888        C  0.07691020  0.61123041  0.78657233    -0.10760
H889        H  0.99554963  0.62210572  0.74804916     0.08930
H890        H  0.02735437  0.64657181  0.85524769     0.06460
H891        H  0.10341643  0.60221783  0.77952358     0.06300
C892        C  0.19967591  0.50857206  0.86497220     0.03340
C893        C  0.23398032  0.51826287  0.87535319    -0.12810
C894        C  0.24193406  0.55280253  0.88643472     0.00840
C895        C  0.21498968  0.57876098  0.88736785    -0.11340
C896        C  0.17960192  0.56977735  0.87721300     0.03330
C897        C  0.17217666  0.53409199  0.86631477    -0.10760
H898        H  0.25506209  0.49832370  0.87504856     0.08930
H899        H  0.22181199  0.60571171  0.89549982     0.06460
H900        H  0.14543108  0.52613575  0.85877425     0.06300
O901        O  0.21302001  0.70065477  0.22220763    -0.88130
C902        C  0.19371298  0.80615013  0.23182465     0.87900
Mg903      Mg  0.22039074  0.66762681  0.26777704     1.58150
O904        O  0.27871031  0.78390796  0.20227585    -0.87860
O905        O  0.24151110  0.71581328  0.17300830    -0.75190
C906        C  0.32808008  0.76188179  0.37030640     0.92950
O907        O  0.17205729  0.74306844  0.28402117    -0.75010
O908        O  0.31148472  0.73220108  0.37025367    -0.82520
Mg909      Mg  0.16734228  0.73414464  0.22314656     1.57960
C910        C  0.36821049  0.82725362  0.23838102     0.92870
O911        O  0.15997155  0.72288979  0.16275593    -0.80780
H912        H  0.31070976  0.75901130  0.16740110    -0.06120
C913        C  0.26794263  0.80583392  0.30713095     0.87810
O914        O  0.28128288  0.67126408  0.25892775    -0.75290
O915        O  0.20105510  0.77860742  0.21483844    -0.88050
O916        O  0.33917073  0.83525343  0.22253282    -0.80860
C917        C  0.23832696  0.86676724  0.17090512     0.92980
C918        C  0.16848497  0.73719158  0.13300692     0.92840
Mg919      Mg  0.33142140  0.76523513  0.28007939     1.57950
O920        O  0.33649315  0.77759682  0.34116904    -0.80780
O921        O  0.32763476  0.75590509  0.21901250    -0.75020
O922        O  0.22233077  0.83779326  0.16263721    -0.80860
O923        O  0.13033647  0.68895491  0.23520043    -0.82580
O924        O  0.27709883  0.66000939  0.33890127    -0.80890
C925        C  0.30581421  0.76632940  0.19495496     0.87270
O926        O  0.29802066  0.72010668  0.28733945    -0.88040
O927        O  0.28533241  0.79796099  0.28001550    -0.88140
O928        O  0.25721751  0.78215725  0.32925598    -0.75200
Mg929      Mg  0.23369690  0.77683474  0.16852195     1.57970
O930        O  0.26813920  0.86648186  0.18711971    -0.82570
H931        H  0.23639958  0.66454563  0.19039977    -0.06300
O932        O  0.22046366  0.71399037  0.30020155    -0.87840
H933        H  0.18908984  0.73904826  0.33549394    -0.06120
H934        H  0.33279691  0.68781736  0.26270526    -0.06300
C935        C  0.19369951  0.73190075  0.30784684     0.87250
C936        C  0.23011427  0.69239962  0.19502613     0.87840
C937        C  0.30529733  0.69290160  0.26976173     0.87880
H938        H  0.26106409  0.83354190  0.31177181    -0.06280
O939        O  0.21771772  0.82782197  0.24253769    -0.75310
Mg940      Mg  0.26560862  0.72097097  0.33352068     1.58000
H941        H  0.16616678  0.81149174  0.23849279    -0.06300
C942        C  0.13069510  0.67134739  0.26430121     0.92870
O943        O  0.23165472  0.63108362  0.31396380    -0.82530
C944        C  0.26130081  0.63096549  0.33049607     0.92930
O945        O  0.18830472  0.76476430  0.13118127    -0.82520
Mg946      Mg  0.27860811  0.83069597  0.23406212     1.58180
O947        O  0.15979943  0.66253334  0.27963827    -0.80850
O948        O  0.36833186  0.81090007  0.26824366    -0.82550
C949        C  0.69786901  0.99243521  0.13272063     0.03340
C950        C  0.73274661  0.98280411  0.12476016    -0.12810
C951        C  0.74165008  0.94769189  0.11656999     0.00840
C952        C  0.71522334  0.92113926  0.11681575    -0.11340
C953        C  0.67953334  0.93006805  0.12555225     0.03330
C954        C  0.67111798  0.96614701  0.13365264    -0.10760
H955        H  0.75336316  0.00326068  0.12422810     0.08930
H956        H  0.72249613  0.89388249  0.11025663     0.06460
H957        H  0.64400176  0.97392230  0.13986426     0.06300
C958        C  0.59762955  0.87516420  0.15214765     0.03340
C959        C  0.62420635  0.90188056  0.15164760    -0.12810
C960        C  0.65117988  0.90197333  0.12546931     0.00840
C961        C  0.65104689  0.87512946  0.09909362    -0.11340
C962        C  0.62468105  0.84832810  0.09858509     0.03330
C963        C  0.59831320  0.84848552  0.12544002    -0.10760
H964        H  0.62401133  0.92274408  0.17170395     0.08930
H965        H  0.67161577  0.87514688  0.07879581     0.06460
H966        H  0.57817200  0.82775558  0.12542809     0.06300
C967        C  0.63471105  0.80262105  0.00770658     0.03340
C968        C  0.62467228  0.76788954  0.01626076    -0.12810
C969        C  0.61447240  0.75862779  0.05076998     0.00840
C970        C  0.61446400  0.78461634  0.07783005    -0.11340
C971        C  0.62469736  0.82032203  0.06995269     0.03330
C972        C  0.63486004  0.82904592  0.03438149    -0.10760
H973        H  0.62464260  0.74755847  0.99547966     0.08930
H974        H  0.60670864  0.77692904  0.10466094     0.06460
H975        H  0.64250788  0.85608509  0.02729951     0.06300
C976        C  0.50792002  0.86245258  0.19895075     0.03340
C977        C  0.51578270  0.87520465  0.23291256    -0.12810
C978        C  0.54941402  0.88822913  0.24149973     0.00840
C979        C  0.57650251  0.88767019  0.21554634    -0.11340
C980        C  0.56914531  0.87523071  0.18033155     0.03330
C981        C  0.53423207  0.86276676  0.17234055    -0.10760
H982        H  0.49520567  0.87454856  0.25335868     0.08930
H983        H  0.60292714  0.89677237  0.22290763     0.06460
H984        H  0.52734731  0.85342965  0.14580340     0.06300
C985        C  0.87397530  0.64988263  0.40081679     0.03340
C986        C  0.84770195  0.62299057  0.40046987    -0.12810
C987        C  0.84752013  0.59618743  0.37403838     0.00840
C988        C  0.87427696  0.59650110  0.34763810    -0.11340
C989        C  0.90079515  0.62320857  0.34721461     0.03330
C990        C  0.90026330  0.64971254  0.37397369    -0.10760
H991        H  0.82721355  0.62291970  0.42083486     0.08930
H992        H  0.87437637  0.57587521  0.32734016     0.06460
H993        H  0.92046450  0.67038297  0.37392554     0.06300
C994        C  0.94822302  0.61308938  0.25734077     0.03340
C995        C  0.98191147  0.62594657  0.26603325    -0.12810
C996        C  0.99013330  0.63690090  0.30054207     0.00840
C997        C  0.96401511  0.63560092  0.32724159    -0.11340
C998        C  0.92904116  0.62361660  0.31897459     0.03330
C999        C  0.92145481  0.61216507  0.28353680    -0.10760
H1000       H  0.00248102  0.62677145  0.24557838     0.08930
H1001       H  0.97113162  0.64365929  0.35414366     0.06460
H1002       H  0.89514724  0.60269728  0.27620796     0.06300
C1003       C  0.86327260  0.69705696  0.49073625     0.03340
C1004       C  0.86313013  0.67020200  0.46454490    -0.12810
C1005       C  0.87396711  0.67820065  0.42904760     0.00840
C1006       C  0.88480440  0.71360900  0.42073118    -0.11340
C1007       C  0.88506787  0.73994912  0.44735468     0.03330
C1008       C  0.87448850  0.73139304  0.48191772    -0.10760
H1009       H  0.85478213  0.64345808  0.47193109     0.08930
H1010       H  0.89266524  0.72089844  0.39382327     0.06460
H1011       H  0.87466652  0.75204839  0.50237164     0.06300
C1012       C  0.80080631  0.50598092  0.36495930     0.03340
C1013       C  0.76615216  0.51522344  0.37418670    -0.12810
C1014       C  0.75729853  0.55012715  0.38323580     0.00840
C1015       C  0.78367919  0.57670545  0.38332979    -0.11340
C1016       C  0.81927501  0.56801762  0.37398893     0.03330
C1017       C  0.82758112  0.53220530  0.36468966    -0.10760
H1018       H  0.74554710  0.49474574  0.37429517     0.08930
H1019       H  0.77636881  0.60384395  0.39030794     0.06460
H1020       H  0.85453281  0.52463698  0.35758864     0.06300
C1021       C  0.05127804  0.88061161  0.25783308     0.03340
C1022       C  0.01802667  0.86677755  0.26665986    -0.12810
C1023       C  0.00958114  0.85762927  0.30166044     0.00840
C1024       C  0.03556222  0.86092580  0.32852318    -0.11340
C1025       C  0.07055385  0.87276068  0.31990133     0.03330
C1026       C  0.07790871  0.88323681  0.28414632    -0.10760
H1027       H  0.99752154  0.86514090  0.24613230     0.08930
H1028       H  0.02838383  0.85441302  0.35582005     0.06460
H1029       H  0.10391548  0.89333786  0.27665566     0.06300
C1030       C  0.09911466  0.87369684  0.34802727     0.03340
C1031       C  0.12605287  0.90008140  0.34780744    -0.12810
C1032       C  0.15313876  0.90056567  0.37411296     0.00840
C1033       C  0.15289361  0.87391785  0.40086330    -0.11340
C1034       C  0.12630084  0.84725856  0.40171345     0.03330
C1035       C  0.09967996  0.84755778  0.37514833    -0.10760
H1036       H  0.12593015  0.92034480  0.32712232     0.08930
H1037       H  0.17344009  0.87401562  0.42120885     0.06460
H1038       H  0.07916734  0.82720496  0.37558341     0.06300
C1039       C  0.24265193  0.94863099  0.38631847     0.03340
C1040       C  0.21678294  0.92137858  0.38530631    -0.12810
C1041       C  0.18134390  0.92909636  0.37403658     0.00840
C1042       C  0.17295897  0.96455200  0.36323622    -0.11340
C1043       C  0.19930326  0.99122797  0.36381447     0.03330
C1044       C  0.23355734  0.98295622  0.37525806    -0.10760
H1045       H  0.22428585  0.89458264  0.39335987     0.08930
H1046       H  0.14622893  0.97159426  0.35479893     0.06460
H1047       H  0.25375470  0.00383677  0.37538146     0.06300
C1048       C  0.13563881  0.80116806  0.49254982     0.03340
C1049       C  0.13719133  0.82742468  0.46574500    -0.12810
C1050       C  0.12583119  0.81926496  0.43042477     0.00840
C1051       C  0.11364055  0.78405946  0.42285089    -0.11340
C1052       C  0.11179304  0.75843800  0.45021203     0.03330
C1053       C  0.12230643  0.76743120  0.48463860    -0.10760
H1054       H  0.14701183  0.85380353  0.47255123     0.08930
H1055       H  0.10583369  0.77642036  0.39601820     0.06460
H1056       H  0.12119214  0.74726391  0.50559836     0.06300
C1057       C  0.30198672  0.01088606  0.85947100     0.03340
C1058       C  0.26785147  0.01937748  0.87098415    -0.12810
C1059       C  0.25994715  0.05294422  0.88471197     0.00840
C1060       C  0.28641056  0.07946157  0.88566981    -0.11340
C1061       C  0.32147487  0.07169978  0.87364668     0.03330
C1062       C  0.32905878  0.03671078  0.86100672    -0.10760
H1063       H  0.24716449  0.99899375  0.87025274     0.08930
H1064       H  0.27954140  0.10570521  0.89573997     0.06460
H1065       H  0.35569842  0.02933521  0.85268326     0.06300
C1066       C  0.40378997  0.12661082  0.84818068     0.03340
C1067       C  0.37680606  0.10038575  0.84804450    -0.12810
C1068       C  0.34999566  0.09977669  0.87439669     0.00840
C1069       C  0.35052694  0.12615584  0.90128868    -0.11340
C1070       C  0.37698339  0.15291418  0.90197619     0.03330
C1071       C  0.40346381  0.15281582  0.87526133    -0.10760
H1072       H  0.37672305  0.08025841  0.82728176     0.08930
H1073       H  0.33019566  0.12596969  0.92178270     0.06460
H1074       H  0.42392054  0.17324634  0.87559003     0.06300
C1075       C  0.38616189  0.24305572  0.94902140     0.03340
C1076       C  0.38687782  0.21675130  0.92229636    -0.12810
C1077       C  0.37676571  0.18105943  0.93042349     0.00840
C1078       C  0.36598728  0.17267526  0.96586877    -0.11340
C1079       C  0.36538576  0.19943326  0.99216169     0.03330
C1080       C  0.37564789  0.23406706  0.98347997    -0.10760
H1081       H  0.39477922  0.22424709  0.89545385     0.08930
H1082       H  0.35819369  0.14571991  0.97310144     0.06460
H1083       H  0.37513995  0.25464465  0.00401250     0.06300
C1084       C  0.49444982  0.13577328  0.80261091     0.03340
C1085       C  0.48633920  0.12378451  0.76838060    -0.12810
C1086       C  0.45198591  0.11327890  0.75915445     0.00840
C1087       C  0.42471770  0.11501524  0.78476730    -0.11340
C1088       C  0.43239556  0.12626709  0.82025146     0.03330
C1089       C  0.46775644  0.13682818  0.82882743    -0.10760
H1090       H  0.50716110  0.12338383  0.74818428     0.08930
H1091       H  0.39787930  0.10765266  0.77695380     0.06460
H1092       H  0.47468578  0.14562841  0.85554297     0.06300
O1093       O  0.95146575  0.96210057  0.52768657    -0.88130
C1094       C  0.05642364  0.94134981  0.52030229     0.87900
Mg1095     Mg  0.91999655  0.97005062  0.48115229     1.58150
O1096       O  0.03597663  0.02666515  0.55106392    -0.87860
O1097       O  0.96608108  0.99046660  0.57718177    -0.75190
C1098       C  0.01587583  0.08169900  0.38410165     0.92950
O1099       O  0.99501625  0.92131983  0.46672668    -0.75010
O1100       O  0.98753068  0.06309819  0.38207346    -0.82520
Mg1101     Mg  0.98432971  0.91588581  0.52738609     1.57960
C1102       C  0.08147407  0.11605863  0.51701835     0.92870
O1103       O  0.97114599  0.90820720  0.58749993    -0.80780
H1104       H  0.01129214  0.05837647  0.58634370    -0.06120
C1105       C  0.05895232  0.01826262  0.44584450     0.87810
O1106       O  0.92332118  0.03105034  0.49100341    -0.75290
O1107       O  0.02899742  0.94893994  0.53721776    -0.88050
O1108       O  0.08959310  0.08639505  0.53185036    -0.80860
C1109       C  0.11649438  0.98387989  0.58464136     0.92980
C1110       C  0.98482087  0.91650479  0.61762091     0.92840
Mg1111     Mg  0.01802841  0.08124747  0.47438972     1.57950
O1112       O  0.03048563  0.08923704  0.41399617    -0.80780
O1113       O  0.00816472  0.07595929  0.53499666    -0.75020
O1114       O  0.08663828  0.96950047  0.59240954    -0.80860
O1115       O  0.93925346  0.87927408  0.51368321    -0.82580
O1116       O  0.91409949  0.02842391  0.41120404    -0.80890
C1117       C  0.01864024  0.05384773  0.55874042     0.87270
O1118       O  0.97309831  0.04814688  0.46488656    -0.88040
O1119       O  0.05069542  0.03486461  0.47336169    -0.88140
O1120       O  0.03569910  0.00797960  0.42314025    -0.75200
Mg1121     Mg  0.02656875  0.98142224  0.58375009     1.57970
O1122       O  0.11855567  0.01222997  0.56584457    -0.82570
H1123       H  0.91531936  0.98658118  0.55850478    -0.06300
O1124       O  0.96717708  0.97050935  0.45031849    -0.87840
H1125       H  0.99298352  0.93925894  0.41540766    -0.06120
H1126       H  0.94016490  0.08272061  0.48896143    -0.06300
C1127       C  0.98500821  0.94357427  0.44286988     0.87250
C1128       C  0.94301831  0.97954753  0.55460479     0.87840
C1129       C  0.94539770  0.05525019  0.48157169     0.87880
H1130       H  0.08664990  0.01155687  0.44140530    -0.06280
O1131       O  0.07834554  0.96518445  0.50977456    -0.75310
Mg1132     Mg  0.97493152  0.01654852  0.41788383     1.58000
H1133       H  0.06130251  0.91371562  0.51328352    -0.06300
C1134       C  0.92264670  0.88006957  0.48404596     0.92870
O1135       O  0.88555774  0.98144875  0.43357401    -0.82530
C1136       C  0.88520831  0.01177519  0.41821319     0.92930
O1137       O  0.01262609  0.93583752  0.62010598    -0.82520
Mg1138     Mg  0.08290049  0.02585527  0.51935848     1.58180
O1139       O  0.91483524  0.90946201  0.46859733    -0.80850
O1140       O  0.06350777  0.11747794  0.48816002    -0.82550
C1141       C  0.04905796  0.38466157  0.74076102     0.03340
C1142       C  0.01411333  0.37938916  0.72950871    -0.12810
C1143       C  0.00624190  0.37024837  0.69435466     0.00840
C1144       C  0.03368813  0.36841325  0.66899591    -0.11340
C1145       C  0.06933630  0.37591359  0.67923628     0.03330
C1146       C  0.07682827  0.38377659  0.71560807    -0.10760
H1147       H  0.99271284  0.38009464  0.74908605     0.08930
H1148       H  0.02724812  0.36109978  0.64169981     0.06460
H1149       H  0.10401480  0.38804286  0.72450008     0.06300
C1150       C  0.09863552  0.37470664  0.65227371     0.03340
C1151       C  0.12608405  0.40039117  0.65290500    -0.12810
C1152       C  0.15333008  0.40030966  0.62698409     0.00840
C1153       C  0.15299783  0.37359317  0.60042065    -0.11340
C1154       C  0.12611321  0.34729873  0.59950908     0.03330
C1155       C  0.09901745  0.34822078  0.62552578    -0.10760
H1156       H  0.12603454  0.42068773  0.67356151     0.08930
H1157       H  0.17371287  0.37325111  0.58028652     0.06460
H1158       H  0.07807598  0.32826017  0.62491440     0.06300
C1159       C  0.11722311  0.25660673  0.55380099     0.03340
C1160       C  0.11653702  0.28326402  0.58015928    -0.12810
C1161       C  0.12636541  0.31886118  0.57146603     0.00840
C1162       C  0.13656166  0.32694856  0.53581820    -0.11340
C1163       C  0.13680407  0.29992980  0.50977638     0.03330
C1164       C  0.12723170  0.26523315  0.51907589    -0.10760
H1165       H  0.10873931  0.27617914  0.60715182     0.08930
H1166       H  0.14400309  0.35392134  0.52825358     0.06460
H1167       H  0.12748147  0.24444567  0.49875619     0.06300
C1168       C  0.24344480  0.44686387  0.61701308     0.03340
C1169       C  0.21720447  0.42009278  0.61702944    -0.12810
C1170       C  0.18174882  0.42839041  0.62734963     0.00840
C1171       C  0.17347048  0.46406043  0.63725653    -0.11340
C1172       C  0.20010734  0.49040016  0.63699904     0.03330
C1173       C  0.23471123  0.48140419  0.62746191    -0.10760
H1174       H  0.22445218  0.39324250  0.60898953     0.08930
H1175       H  0.14652493  0.47157163  0.64442828     0.06460
H1176       H  0.25518151  0.50201986  0.62727555     0.06300
O1177       O  0.29927240  0.27934170  0.21496239    -0.88130
C1178       C  0.19468293  0.26815317  0.19365295     0.87900
Mg1179     Mg  0.33262548  0.23427742  0.22294889     1.58150
O1180       O  0.21439913  0.29903067  0.27923179    -0.87860
O1181       O  0.28290185  0.32836215  0.24310634    -0.75190
C1182       C  0.23822442  0.13214572  0.33093107     0.92950
O1183       O  0.25837679  0.21710442  0.17323138    -0.75010
O1184       O  0.26762454  0.13173660  0.31400832    -0.82520
Mg1185     Mg  0.26685178  0.27813523  0.16849778     1.57960
C1186       C  0.17034072  0.26262131  0.36843252     0.92870
O1187       O  0.27815324  0.33888158  0.16190220    -0.80780
H1188       H  0.23820025  0.33468112  0.31135699    -0.06120
C1189       C  0.19458873  0.19366576  0.26907502     0.87810
O1190       O  0.32830048  0.24350071  0.28391447    -0.75290
O1191       O  0.22165397  0.28581665  0.20140740    -0.88050
O1192       O  0.16205171  0.27796846  0.33907574    -0.80860
C1193       C  0.13232469  0.32913977  0.23668786     0.92980
C1194       C  0.26309843  0.36830007  0.17019234     0.92840
Mg1195     Mg  0.23408893  0.22221781  0.33294341     1.57950
O1196       O  0.22267447  0.16139333  0.33889526    -0.80780
O1197       O  0.24237139  0.28328660  0.32864014    -0.75020
O1198       O  0.16165377  0.33779584  0.22174067    -0.80860
O1199       O  0.31273029  0.26639592  0.13219467    -0.82580
O1200       O  0.34012481  0.16331504  0.28021590    -0.80890
C1201       C  0.23151954  0.30693567  0.30656466     0.87270
O1202       O  0.27952994  0.21494318  0.30013078    -0.88040
O1203       O  0.20192287  0.22107351  0.28632795    -0.88140
O1204       O  0.21855507  0.17184790  0.25869595    -0.75200
Mg1205     Mg  0.22216751  0.33226910  0.23395015     1.57970
O1206       O  0.13154831  0.31149895  0.26580243    -0.82570
H1207       H  0.33429884  0.31161944  0.23940998    -0.06300
O1208       O  0.28668602  0.20136828  0.22244812    -0.87840
H1209       H  0.26239565  0.16574748  0.19066081    -0.06120
H1210       H  0.31116002  0.23998465  0.33536360    -0.06300
C1211       C  0.26927707  0.19346988  0.19529878     0.87250
C1212       C  0.30675653  0.30662132  0.23235084     0.87840
C1213       C  0.30647716  0.23271305  0.30774532     0.87880
H1214       H  0.16709391  0.18854653  0.26191569    -0.06280
O1215       O  0.17291476  0.25709681  0.21739159    -0.75310
Mg1216     Mg  0.27938652  0.16833767  0.26794709     1.58000
H1217       H  0.18998937  0.26112120  0.16597221    -0.06300
C1218       C  0.33015182  0.23723506  0.13282627     0.92870
O1219       O  0.36941075  0.18871089  0.23517618    -0.82530
C1220       C  0.36923343  0.17173182  0.26468168     0.92930
O1221       O  0.23437542  0.36920967  0.18822220    -0.82520
Mg1222     Mg  0.16841378  0.26602824  0.27830267     1.58180
O1223       O  0.33851418  0.22199211  0.16221253    -0.80850
O1224       O  0.18798380  0.23359754  0.36907685    -0.82550
C1225       C  0.84926729  0.40287985  0.12363098     0.03340
C1226       C  0.87636046  0.40249737  0.14978808    -0.12810
C1227       C  0.90262232  0.37554076  0.15029990     0.00840
C1228       C  0.90146409  0.34869264  0.12389216    -0.11340
C1229       C  0.87495451  0.34865588  0.09717626     0.03330
C1230       C  0.84905748  0.37592540  0.09728247    -0.10760
H1231       H  0.87684915  0.42321371  0.16998561     0.08930
H1232       H  0.92129186  0.32765826  0.12407269     0.06460
H1233       H  0.82853595  0.37600377  0.07686442     0.06300
C1234       C  0.86639345  0.30157280  0.00703740     0.03340
C1235       C  0.87362562  0.26644956  0.01683296    -0.12810
C1236       C  0.88153416  0.25739657  0.05201834     0.00840
C1237       C  0.88220711  0.28407335  0.07840798    -0.11340
C1238       C  0.87429970  0.32005708  0.06927428     0.03330
C1239       C  0.86623415  0.32853567  0.03316075    -0.10760
H1240       H  0.87357523  0.24570569  0.99646560     0.08930
H1241       H  0.88863747  0.27675482  0.10571878     0.06460
H1242       H  0.86048210  0.35583082  0.02527567     0.06300
C1243       C  0.99257473  0.36331599  0.19684642     0.03340
C1244       C  0.98441796  0.37477737  0.23116807    -0.12810
C1245       C  0.95056550  0.38696075  0.23983327     0.00840
C1246       C  0.92361012  0.38704708  0.21377004    -0.11340
C1247       C  0.93109516  0.37530893  0.17844102     0.03330
C1248       C  0.96614336  0.36352390  0.17023659    -0.10760
H1249       H  0.00510028  0.37462291  0.25159180     0.08930
H1250       H  0.89719714  0.39609250  0.22112394     0.06460
H1251       H  0.97304122  0.35491512  0.14347166     0.06300
C1252       C  0.80152808  0.49219427  0.13698612     0.03340
C1253       C  0.82881800  0.46656947  0.13471848    -0.12810
C1254       C  0.82076129  0.43087702  0.12448963     0.00840
C1255       C  0.78502355  0.42199805  0.11566903    -0.11340
C1256       C  0.75817225  0.44800151  0.11789145     0.03330
C1257       C  0.76667816  0.48251669  0.12870193    -0.10760
H1258       H  0.85594798  0.47445200  0.14085474     0.08930
H1259       H  0.77792918  0.39511074  0.10753505     0.06460
H1260       H  0.74575951  0.50259904  0.12980326     0.06300
C1261       C  0.84977916  0.90111787  0.87573674     0.03340
C1262       C  0.87635631  0.90035281  0.84912963    -0.12810
C1263       C  0.90279240  0.87357259  0.84889865     0.00840
C1264       C  0.90219588  0.84704493  0.87570832    -0.11340
C1265       C  0.87588027  0.84711592  0.90255223     0.03330
C1266       C  0.85005230  0.87442957  0.90240254    -0.10760
H1267       H  0.87645060  0.92059894  0.82839449     0.08930
H1268       H  0.92223260  0.82619263  0.87561187     0.06460
H1269       H  0.82990838  0.87472633  0.92311666     0.06300
C1270       C  0.94825677  0.88060770  0.75790036     0.03340
C1271       C  0.92192634  0.88156260  0.78453093    -0.12810
C1272       C  0.93079251  0.87314723  0.82048027     0.00840
C1273       C  0.96655719  0.86402058  0.82893130    -0.11340
C1274       C  0.99262107  0.86381818  0.80200090     0.03330
C1275       C  0.98319692  0.87227267  0.76704021    -0.10760
H1276       H  0.89477282  0.88817334  0.77713042     0.08930
H1277       H  0.97414699  0.85729141  0.85609429     0.06460
H1278       H  0.00351605  0.87190005  0.74632649     0.06300
C1279       C  0.80243869  0.99104082  0.86436593     0.03340
C1280       C  0.76827425  0.98214820  0.87561267    -0.12810
C1281       C  0.75988518  0.94767030  0.88660197     0.00840
C1282       C  0.78624207  0.92110352  0.88658890    -0.11340
C1283       C  0.82149481  0.92939511  0.87553258     0.03330
C1284       C  0.82930659  0.96487022  0.86431109    -0.10760
H1285       H  0.74764067  0.00256471  0.87569912     0.08930
H1286       H  0.77910576  0.89425920  0.89484303     0.06460
H1287       H  0.85591701  0.97224385  0.85582309     0.06300
C1288       C  0.88028449  0.75565804  0.94793824     0.03340
C1289       C  0.87093570  0.76468970  0.98277994    -0.12810
C1290       C  0.86470143  0.80000368  0.99245967     0.00840
C1291       C  0.86638263  0.82707249  0.96646688    -0.11340
C1292       C  0.87490237  0.81851166  0.93052749     0.03330
C1293       C  0.88244920  0.78242883  0.92163540    -0.10760
H1294       H  0.87002331  0.74395958  0.00317465     0.08930
H1295       H  0.86163769  0.85454579  0.97434255     0.06460
H1296       H  0.88978478  0.77510705  0.89459419     0.06300
O1297       O  0.20191087  0.72086925  0.71563321    -0.88130
C1298       C  0.30641445  0.73063780  0.69327263     0.87900
Mg1299     Mg  0.16882206  0.76624098  0.72299883     1.58150
O1300       O  0.28675086  0.70150165  0.77948802    -0.87860
O1301       O  0.21788191  0.67198903  0.74434679    -0.75190
C1302       C  0.26455977  0.86933216  0.82803394     0.92950
O1303       O  0.24281478  0.78220239  0.67259713    -0.75010
O1304       O  0.23474817  0.86927949  0.81182288    -0.82520
Mg1305     Mg  0.23386064  0.72119584  0.66892505     1.57960
C1306       C  0.33140123  0.73863202  0.86756271     0.92870
O1307       O  0.22243504  0.66061840  0.66299289    -0.80780
H1308       H  0.26295506  0.66661910  0.81246273    -0.06120
C1309       C  0.30741364  0.80642191  0.76718195     0.87810
O1310       O  0.17348667  0.75785745  0.78406626    -0.75290
O1311       O  0.27929828  0.71346796  0.70154845    -0.88050
O1312       O  0.33918104  0.72266172  0.83849257    -0.80860
C1313       C  0.36829778  0.66988525  0.73737339     0.92980
C1314       C  0.23717856  0.63110748  0.67155543     0.92840
Mg1315     Mg  0.26847589  0.77941899  0.83183992     1.57950
O1316       O  0.28042884  0.84029950  0.83626419    -0.80780
O1317       O  0.25956135  0.71832668  0.82887129    -0.75020
O1318       O  0.33885894  0.66122936  0.72258186    -0.80860
O1319       O  0.18748260  0.73250765  0.63307689    -0.82580
O1320       O  0.16240694  0.83847671  0.77863408    -0.80890
C1321       C  0.26985887  0.69421316  0.80710404     0.87270
O1322       O  0.22259603  0.78637820  0.79935194    -0.88040
O1323       O  0.29997348  0.77932650  0.78489166    -0.88140
O1324       O  0.28355835  0.82838844  0.75676027    -0.75200
Mg1325     Mg  0.27848310  0.66750408  0.73500629     1.57970
O1326       O  0.36929522  0.68780300  0.76626278    -0.82570
H1327       H  0.16664678  0.68922876  0.74051800    -0.06300
O1328       O  0.21493309  0.79888476  0.72160340    -0.87840
H1329       H  0.23924429  0.83385168  0.68911241    -0.06120
H1330       H  0.19117286  0.76218765  0.83531551    -0.06300
C1331       C  0.23221064  0.80624991  0.69426457     0.87250
C1332       C  0.19420795  0.69385471  0.73335571     0.87840
C1333       C  0.19561442  0.76893179  0.80752255     0.87880
H1334       H  0.33487645  0.81116100  0.75972501    -0.06280
O1335       O  0.32848941  0.74189103  0.71667039    -0.75310
Mg1336     Mg  0.22282148  0.83247166  0.76634340     1.58000
H1337       H  0.31097628  0.73705668  0.66542168    -0.06300
C1338       C  0.17094651  0.76217570  0.63312342     0.92870
O1339       O  0.13219357  0.81207125  0.73472478    -0.82530
C1340       C  0.13304609  0.83001200  0.76360593     0.92930
O1341       O  0.26553469  0.62988088  0.69022156    -0.82520
Mg1342     Mg  0.33304286  0.73392267  0.77772429     1.58180
O1343       O  0.16293661  0.77797701  0.66223464    -0.80850
O1344       O  0.31516508  0.76846594  0.86761860    -0.82550
C1345       C  0.02969493  0.85196992  0.80719405    -0.05250
C1346       C  0.05665857  0.87801839  0.81006487    -0.32680
C1347       C  0.09131217  0.87094321  0.79762186     0.36570
C1348       C  0.09880312  0.83780440  0.78141985    -0.05610
C1349       C  0.07267196  0.81084792  0.78175148    -0.32580
C1350       C  0.03854927  0.81756008  0.79493984     0.36470
H1351       H  0.04999450  0.90485729  0.81873371     0.16840
O1352       O  0.11669023  0.89737057  0.79891168    -0.60080
H1353       H  0.07832369  0.78478301  0.77037678     0.16860
O1354       O  0.01265689  0.79185597  0.79113646    -0.60180
H1355       H  0.01088353  0.78024621  0.81494397     0.43850
H1356       H  0.11400088  0.91077949  0.77614537     0.43810
C1357       C  0.09806586  0.33646570  0.21855903    -0.05250
C1358       C  0.07155985  0.30986467  0.21952747    -0.32680
C1359       C  0.03752270  0.31637661  0.20587586     0.36570
C1360       C  0.02919267  0.35023131  0.19174751    -0.05610
C1361       C  0.05656713  0.37562190  0.18743878    -0.32580
C1362       C  0.09105111  0.36878183  0.20049784     0.36470
H1363       H  0.07684560  0.28432427  0.23226058     0.16840
O1364       O  0.01125916  0.29129355  0.21099326    -0.60080
H1365       H  0.05030027  0.40207553  0.17731807     0.16860
O1366       O  0.11673000  0.39482018  0.19796334    -0.60180
H1367       H  0.11399617  0.40952437  0.21986578     0.43850
H1368       H  0.00735731  0.28038189  0.18713508     0.43810
C1369       C  0.19439405  0.52790941  0.64726221    -0.05250
C1370       C  0.19604618  0.55407698  0.62019719    -0.32680
C1371       C  0.20840747  0.58868115  0.62781115     0.36570
C1372       C  0.21949455  0.59707916  0.66273978    -0.05610
C1373       C  0.21452844  0.57196017  0.69028696    -0.32580
C1374       C  0.20167216  0.53769313  0.68281034     0.36470
H1375       H  0.19131242  0.54658832  0.59257483     0.16840
O1376       O  0.21237227  0.61296004  0.60054411    -0.60080
H1377       H  0.22214839  0.57846653  0.71752100     0.16860
O1378       O  0.20080985  0.51259447  0.70962319    -0.60180
H1379       H  0.17552815  0.51162835  0.71735809     0.43850
H1380       H  0.23676399  0.60890105  0.59111174     0.43810
C1381       C  0.16276510  0.28013853  0.40298295    -0.05250
C1382       C  0.18954550  0.27957301  0.42932637    -0.32680
C1383       C  0.18293759  0.29224684  0.46376903     0.36570
C1384       C  0.14884821  0.30500863  0.47266981    -0.05610
C1385       C  0.12303321  0.30877238  0.44556734    -0.32580
C1386       C  0.12997591  0.29674591  0.41063699     0.36470
H1387       H  0.21535989  0.26786279  0.42357656     0.16840
O1388       O  0.20840177  0.28762194  0.48978701    -0.60080
H1389       H  0.09642489  0.31784986  0.45228362     0.16860
O1390       O  0.10372124  0.29882841  0.38512029    -0.60180
H1391       H  0.08988206  0.27632479  0.38755946     0.43850
H1392       H  0.22052723  0.31112817  0.49180212     0.43810
C1393       C  0.96648956  0.90661849  0.65098541    -0.05250
C1394       C  0.95853084  0.93391786  0.67552463    -0.32680
C1395       C  0.94599937  0.92575395  0.70976304     0.36570
C1396       C  0.94205507  0.88982425  0.72009508    -0.05610
C1397       C  0.94649853  0.86269466  0.69435029    -0.32580
C1398       C  0.95861137  0.87094574  0.65980159     0.36470
H1399       H  0.96381434  0.96162742  0.66869637     0.16840
O1400       O  0.94239476  0.95271252  0.73438711    -0.60080
H1401       H  0.94428155  0.83485835  0.70223244     0.16860
O1402       O  0.96562687  0.84384911  0.63610299    -0.60180
H1403       H  0.99065662  0.83670690  0.64096788     0.43850
H1404       H  0.91652693  0.95823503  0.73475492     0.43810
C1405       C  0.08983418  0.15017109  0.53493824    -0.05250
C1406       C  0.06307956  0.17644646  0.53610987    -0.32680
C1407       C  0.07047558  0.21079390  0.54865717     0.36570
C1408       C  0.10527598  0.21957908  0.55952205    -0.05610
C1409       C  0.13119001  0.19245096  0.56171525    -0.32580
C1410       C  0.12352050  0.15765803  0.54976931     0.36470
H1411       H  0.03666725  0.17076784  0.52568651     0.16840
O1412       O  0.04489393  0.23686452  0.54554226    -0.60080
H1413       H  0.15830193  0.19911411  0.56932045     0.16860
O1414       O  0.14984399  0.13218993  0.54998565    -0.60180
H1415       H  0.16234686  0.13499860  0.52677059     0.43850
H1416       H  0.03414686  0.23881273  0.56969306     0.43810
C1417       C  0.33759536  0.21958910  0.09826252    -0.05250
C1418       C  0.31169317  0.22211466  0.07115669    -0.32680
C1419       C  0.31844127  0.20925140  0.03682489     0.36570
C1420       C  0.35188875  0.19434990  0.02876425    -0.05610
C1421       C  0.37652087  0.18852068  0.05657678    -0.32580
C1422       C  0.36935118  0.20070177  0.09141420     0.36470
H1423       H  0.28654463  0.23547919  0.07622139     0.16840
O1424       O  0.29414560  0.21587289  0.01011613    -0.60080
H1425       H  0.40263620  0.17768644  0.05056041     0.16860
O1426       O  0.39455957  0.19639864  0.11770216    -0.60180
H1427       H  0.41007683  0.21783618  0.11599635     0.43850
H1428       H  0.28055283  0.19326266  0.00741904     0.43810
C1429       C  0.30689745  0.97422292  0.84615894    -0.05250
C1430       C  0.31402689  0.94697180  0.87112895    -0.32680
C1431       C  0.30218241  0.91183986  0.86498102     0.36570
C1432       C  0.28212382  0.90417766  0.83405031    -0.05610
C1433       C  0.27840005  0.93065096  0.80757325    -0.32580
C1434       C  0.29081216  0.96537321  0.81334811     0.36470
H1435       H  0.32565257  0.95364451  0.89684843     0.16840
O1436       O  0.30716792  0.88629349  0.89086688    -0.60080
H1437       H  0.26437603  0.92482077  0.78285400     0.16860
O1438       O  0.28393880  0.99142696  0.78832239    -0.60180
H1439       H  0.25877701  0.99860019  0.79230879     0.43850
H1440       H  0.33085130  0.87572059  0.88564073     0.43810
C1441       C  0.15067140  0.80527293  0.52866034    -0.05250
C1442       C  0.12775121  0.81432616  0.55695958    -0.32680
C1443       C  0.13471902  0.80216348  0.59188205     0.36570
C1444       C  0.16419640  0.77964918  0.59825810    -0.05610
C1445       C  0.18879964  0.77377767  0.57055361    -0.32580
C1446       C  0.18234952  0.78657406  0.53610111     0.36470
H1447       H  0.10285818  0.82798751  0.55140798     0.16840
O1448       O  0.11090551  0.80964101  0.61865530    -0.60080
H1449       H  0.21253459  0.75787331  0.57521600     0.16860
O1450       O  0.20516824  0.77734696  0.50890928    -0.60180
H1451       H  0.19895172  0.75230933  0.50256531     0.43850
H1452       H  0.11866315  0.83305225  0.62847402     0.43810
C1453       C  0.19411445  0.02815492  0.35109655    -0.05250
C1454       C  0.18965080  0.05534867  0.37670592    -0.32680
C1455       C  0.20242156  0.09011158  0.37016979     0.36570
C1456       C  0.22043545  0.09757019  0.33798542    -0.05610
C1457       C  0.22161162  0.07124441  0.31118969    -0.32580
C1458       C  0.20816095  0.03695891  0.31735722     0.36470
H1459       H  0.17954995  0.04875044  0.40306397     0.16840
O1460       O  0.19961582  0.11564281  0.39635643    -0.60080
H1461       H  0.23429850  0.07688600  0.28574203     0.16860
O1462       O  0.21334205  0.01090256  0.29204216    -0.60180
H1463       H  0.19048097  0.00946530  0.27874058     0.43850
H1464       H  0.22141736  0.11293202  0.41117290     0.43810
C1465       C  0.89773622  0.77673564  0.44178247    -0.05250
C1466       C  0.93236846  0.78444131  0.45349703    -0.32680
C1467       C  0.94089835  0.81849986  0.46621493     0.36570
C1468       C  0.91483564  0.84572629  0.46633852    -0.05610
C1469       C  0.88156692  0.83925938  0.45039539    -0.32580
C1470       C  0.87270397  0.80469462  0.43868442     0.36470
H1471       H  0.95169227  0.76305460  0.45645747     0.16840
O1472       O  0.97455126  0.82472219  0.47939120    -0.60080
H1473       H  0.86159248  0.86018659  0.44954583     0.16860
O1474       O  0.83863890  0.79770394  0.42716542    -0.60180
H1475       H  0.82469400  0.79296799  0.44921437     0.43850
H1476       H  0.97469748  0.81414521  0.50376765     0.43810
C1477       C  0.09614772  0.66416497  0.28174002    -0.05250
C1478       C  0.06953466  0.69053222  0.27936858    -0.32680
C1479       C  0.03511119  0.68391021  0.29176623     0.36570
C1480       C  0.02659139  0.65021499  0.30610716    -0.05610
C1481       C  0.05393782  0.62515018  0.31194129    -0.32580
C1482       C  0.08879280  0.63209702  0.30009557     0.36470
H1483       H  0.07504635  0.71590964  0.26640482     0.16840
O1484       O  0.00884008  0.70865484  0.28530061    -0.60080
H1485       H  0.04751222  0.59885078  0.32236432     0.16860
O1486       O  0.11457122  0.60637085  0.30407432    -0.60180
H1487       H  0.11268100  0.59121635  0.28238531     0.43850
H1488       H  0.00670413  0.72246379  0.30783753     0.43810
C1489       C  0.47188312  0.84753068  0.19439989    -0.05250
C1490       C  0.44378603  0.87113775  0.18650634    -0.32680
C1491       C  0.40914148  0.86421754  0.19902114     0.36570
C1492       C  0.40279226  0.83397465  0.22064816    -0.05610
C1493       C  0.43013571  0.80868537  0.22520809    -0.32580
C1494       C  0.46434962  0.81513582  0.21201616     0.36470
H1495       H  0.44939066  0.89655031  0.17368088     0.16840
O1496       O  0.38270018  0.88881660  0.19292950    -0.60080
H1497       H  0.42537531  0.78439167  0.24035905     0.16860
O1498       O  0.49126530  0.79143697  0.21974638    -0.60180
H1499       H  0.49832931  0.79659127  0.24482112     0.43850
H1500       H  0.37235484  0.88215835  0.16940881     0.43810
C1501       C  0.14135865  0.69537923  0.03019979    -0.05250
C1502       C  0.11408457  0.70291703  0.05495537    -0.32680
C1503       C  0.12233576  0.71505174  0.08947725     0.36570
C1504       C  0.15816942  0.71964477  0.09937342    -0.05610
C1505       C  0.18528888  0.70876813  0.07588043    -0.32580
C1506       C  0.17706498  0.69632398  0.04157464     0.36470
H1507       H  0.08649021  0.70302733  0.04623933     0.16840
O1508       O  0.09539651  0.72517758  0.11210436    -0.60080
H1509       H  0.21304220  0.71157295  0.08359996     0.16860
O1510       O  0.20419124  0.68956315  0.01793572    -0.60180
H1511       H  0.20731173  0.66320682  0.01841239     0.43850
H1512       H  0.09093036  0.75077736  0.10658733     0.43810
C1513       C  0.71650280  0.09971196  0.15726998    -0.05250
C1514       C  0.70796328  0.07560879  0.18483658    -0.32680
C1515       C  0.69545118  0.04127259  0.17702371     0.36570
C1516       C  0.69206452  0.03043147  0.14120758    -0.05610
C1517       C  0.69719481  0.05573099  0.11371579    -0.32580
C1518       C  0.70932526  0.09036472  0.12160353     0.36470
H1519       H  0.71276031  0.08286098  0.21252289     0.16840
O1520       O  0.69124883  0.01706094  0.20431883    -0.60080
H1521       H  0.69542923  0.04743604  0.08597841     0.16860
O1522       O  0.71697722  0.11364150  0.09425701    -0.60180
H1523       H  0.74213923  0.10866037  0.08774501     0.43850
H1524       H  0.66535172  0.01719535  0.20970065     0.43810
C1525       C  0.78069085  0.39914498  0.34025399    -0.05250
C1526       C  0.78094875  0.42497064  0.31291654    -0.32680
C1527       C  0.79389713  0.45937748  0.31921700     0.36570
C1528       C  0.80604396  0.46873521  0.35354607    -0.05610
C1529       C  0.80902126  0.44205746  0.37997265    -0.32580
C1530       C  0.79672031  0.40715769  0.37334875     0.36470
H1531       H  0.76960468  0.41887097  0.28691305     0.16840
O1532       O  0.78998036  0.48501239  0.29317949    -0.60080
H1533       H  0.81759607  0.44916037  0.40675463     0.16860
O1534       O  0.79787812  0.38209201  0.40016152    -0.60180
H1535       H  0.77519677  0.38504751  0.41346437     0.43850
H1536       H  0.81375217  0.48696659  0.28173944     0.43810
C1537       C  0.21129002  0.39828372  0.84185251    -0.05250
C1538       C  0.18629277  0.40875756  0.86790789    -0.32680
C1539       C  0.17848666  0.44519790  0.87334935     0.36570
C1540       C  0.19523286  0.47142220  0.85211658    -0.05610
C1541       C  0.21715388  0.46056352  0.82377305    -0.32580
C1542       C  0.22571843  0.42460534  0.81890064     0.36470
H1543       H  0.17416890  0.38888567  0.88517763     0.16840
O1544       O  0.15701275  0.45501289  0.90133335    -0.60080
H1545       H  0.23021244  0.48047048  0.80718441     0.16860
O1546       O  0.24837934  0.41553702  0.79154434    -0.60180
H1547       H  0.27272513  0.42042148  0.80081381     0.43850
H1548       H  0.13275059  0.45703340  0.89089503     0.43810
C1549       C  0.19346580  0.97061219  0.15123722    -0.05250
C1550       C  0.20949422  0.96276546  0.18418674    -0.32680
C1551       C  0.22359680  0.92884358  0.19085000     0.36570
C1552       C  0.22076708  0.90166750  0.16475144    -0.05610
C1553       C  0.20073310  0.90825047  0.13364677    -0.32580
C1554       C  0.18741139  0.94268954  0.12662723     0.36470
H1555       H  0.21466018  0.98407432  0.20319381     0.16840
O1556       O  0.24076007  0.92271140  0.22276162    -0.60080
H1557       H  0.19746028  0.88741053  0.11376826     0.16860
O1558       O  0.17212418  0.94976066  0.09401686    -0.60180
H1559       H  0.14604065  0.94941535  0.09843988     0.43850
H1560       H  0.26487091  0.93331804  0.21987849     0.43810
C1561       C  0.14911978  0.19474015  0.97214337    -0.05250
C1562       C  0.17831125  0.21522661  0.96074327    -0.32680
C1563       C  0.18268354  0.22396871  0.92472797     0.36570
C1564       C  0.15820633  0.21125502  0.89892532    -0.05610
C1565       C  0.13111922  0.18754814  0.90983553    -0.32580
C1566       C  0.12626943  0.17954150  0.94633129     0.36470
H1567       H  0.19613014  0.22708803  0.98032097     0.16840
O1568       O  0.21108447  0.24507512  0.91506800    -0.60080
H1569       H  0.11266662  0.17668214  0.89031797     0.16860
O1570       O  0.09737270  0.15957415  0.95670541    -0.60180
H1571       H  0.10621391  0.13458501  0.95787672     0.43850
H1572       H  0.20360967  0.26995602  0.92048531     0.43810
C1573       C  0.03367798  0.09153420  0.35042376    -0.05250
C1574       C  0.03768284  0.12739207  0.34037771    -0.32680
C1575       C  0.04800840  0.13603605  0.30532280     0.36570
C1576       C  0.05518684  0.10858731  0.28035538    -0.05610
C1577       C  0.05505297  0.07292799  0.29184366    -0.32580
C1578       C  0.04425502  0.06429807  0.32660570     0.36470
H1579       H  0.03010578  0.14854169  0.35866564     0.16840
O1580       O  0.04788854  0.17118840  0.29461465    -0.60080
H1581       H  0.05974671  0.05156261  0.27282140     0.16860
O1582       O  0.04166016  0.02896395  0.33629847    -0.60180
H1583       H  0.06480613  0.02322143  0.34783890     0.43850
H1584       H  0.02250575  0.17705054  0.28984720     0.43810
C1585       C  0.96821312  0.14308680  0.19144427    -0.05250
C1586       C  0.94067853  0.11765684  0.18865453    -0.32680
C1587       C  0.90615451  0.12567799  0.20084915     0.36570
C1588       C  0.89956300  0.15889636  0.21727607    -0.05610
C1589       C  0.92625558  0.18527684  0.21678805    -0.32580
C1590       C  0.96014219  0.17778410  0.20346749     0.36470
H1591       H  0.94673820  0.09061341  0.18017772     0.16840
O1592       O  0.88027151  0.09975228  0.19997223    -0.60080
H1593       H  0.92123916  0.21146310  0.22818720     0.16860
O1594       O  0.98660078  0.20292242  0.20717293    -0.60180
H1595       H  0.99078652  0.21222226  0.18267297     0.43850
H1596       H  0.86863902  0.10246141  0.17626209     0.43810
C1597       C  0.85300252  0.19043855  0.47182424    -0.05250
C1598       C  0.87864459  0.18754861  0.44452281    -0.32680
C1599       C  0.87105116  0.19956592  0.40970890     0.36570
C1600       C  0.83767971  0.21508404  0.40230388    -0.05610
C1601       C  0.81107938  0.21458547  0.42876019    -0.32580
C1602       C  0.81841142  0.20203376  0.46316751     0.36470
H1603       H  0.90562162  0.17940971  0.45106606     0.16840
O1604       O  0.89723688  0.19876298  0.38412878    -0.60080
H1605       H  0.78487947  0.22554021  0.42317236     0.16860
O1606       O  0.79309708  0.20583415  0.48937865    -0.60180
H1607       H  0.78139940  0.18208870  0.49116741     0.43850
H1608       H  0.91025742  0.22173289  0.38677406     0.43810
C1609       C  0.10392766  0.15426810  0.71051482    -0.05250
C1610       C  0.07980126  0.18285833  0.71331202    -0.32680
C1611       C  0.04387871  0.17847391  0.70420091     0.36570
C1612       C  0.03130158  0.14489199  0.69278701    -0.05610
C1613       C  0.05582510  0.11689527  0.68769121    -0.32580
C1614       C  0.09208448  0.12151843  0.69618760     0.36470
H1615       H  0.08870440  0.20851382  0.72351509     0.16840
O1616       O  0.02052000  0.20609920  0.71003759    -0.60080
H1617       H  0.04634734  0.09060801  0.67994338     0.16860
O1618       O  0.11511950  0.09324222  0.69273329    -0.60180
H1619       H  0.11411886  0.08048280  0.71602113     0.43850
H1620       H  0.01764209  0.21788188  0.68640386     0.43810
C1621       C  0.90972130  0.64990412  0.96829868    -0.05250
C1622       C  0.87596094  0.65624722  0.95332896    -0.32680
C1623       C  0.86689033  0.69066386  0.94116022     0.36570
C1624       C  0.89221231  0.71854841  0.94264459    -0.05610
C1625       C  0.92715297  0.71082811  0.95339364    -0.32580
C1626       C  0.93585158  0.67705230  0.96677233     0.36470
H1627       H  0.85589947  0.63535735  0.95348769     0.16840
O1628       O  0.83254956  0.69756404  0.93047517    -0.60080
H1629       H  0.94672342  0.73214457  0.95520997     0.16860
O1630       O  0.96983132  0.67103563  0.97914770    -0.60180
H1631       H  0.97058978  0.68189297  0.00336347     0.43850
H1632       H  0.81923104  0.70259762  0.95281907     0.43810
C1633       C  0.97080416  0.58519692  0.15169455    -0.05250
C1634       C  0.94754527  0.61403696  0.15777694    -0.32680
C1635       C  0.93466909  0.62094655  0.19240684     0.36570
C1636       C  0.94442144  0.59838854  0.22100853    -0.05610
C1637       C  0.96375144  0.56716503  0.21386223    -0.32580
C1638       C  0.97751140  0.56080091  0.17981395     0.36470
H1639       H  0.94126234  0.63246849  0.13627589     0.16840
O1640       O  0.91578609  0.65169901  0.19872233    -0.60080
H1641       H  0.97168775  0.54973988  0.23569924     0.16860
O1642       O  0.99817238  0.53095021  0.17451189    -0.60180
H1643       H  0.02204582  0.53719240  0.18421705     0.43850
H1644       H  0.89037687  0.64424384  0.19853739     0.43810
C1645       C  0.03186946  0.40569041  0.84947675    -0.05250
C1646       C  0.04727941  0.43234886  0.82789662    -0.32680
C1647       C  0.05866616  0.42453026  0.79311605     0.36570
C1648       C  0.05422729  0.38978079  0.77954595    -0.05610
C1649       C  0.04223720  0.36238711  0.80254501    -0.32580
C1650       C  0.03074271  0.37025003  0.83729415     0.36470
H1651       H  0.04855005  0.45974806  0.83733830     0.16840
O1652       O  0.06985917  0.45181538  0.77126056    -0.60080
H1653       H  0.03810198  0.33561516  0.79216763     0.16860
O1654       O  0.01574556  0.34383684  0.85790400    -0.60180
H1655       H  0.99004409  0.34380055  0.85147503     0.43850
H1656       H  0.09627730  0.45132585  0.77269824     0.43810
C1657       C  0.08804087  0.34758105  0.03334931    -0.05250
C1658       C  0.12106508  0.34121890  0.04987688    -0.32680
C1659       C  0.12945299  0.30689590  0.06269625     0.36570
C1660       C  0.10436466  0.27891355  0.05967200    -0.05610
C1661       C  0.06990457  0.28664240  0.04748492    -0.32580
C1662       C  0.06178348  0.32047596  0.03385117     0.36470
H1663       H  0.14120276  0.36202677  0.05047005     0.16840
O1664       O  0.16347201  0.29991663  0.07427507    -0.60080
H1665       H  0.05048271  0.26530058  0.04466094     0.16860
O1666       O  0.02832858  0.32654302  0.02012005    -0.60180
H1667       H  0.02845563  0.31553608  0.99596170     0.43850
H1668       H  0.16207974  0.30050213  0.10077782     0.43810
C1669       C  0.30577847  0.47173919  0.14556841    -0.05250
C1670       C  0.29813074  0.46233596  0.18100864    -0.32680
C1671       C  0.28556188  0.42810131  0.18923658     0.36570
C1672       C  0.28077798  0.40255894  0.16185700    -0.05610
C1673       C  0.29224965  0.41058276  0.12708979    -0.32580
C1674       C  0.30417432  0.44522739  0.11872003     0.36470
H1675       H  0.29844813  0.48260595  0.20175130     0.16840
O1676       O  0.27613403  0.42044702  0.22388723    -0.60080
H1677       H  0.28946288  0.39092453  0.10596889     0.16860
O1678       O  0.31117998  0.45392541  0.08373739    -0.60180
H1679       H  0.28765136  0.45969681  0.07300253     0.43850
H1680       H  0.29767233  0.40948937  0.23475677     0.43810
C1681       C  0.22169926  0.55921613  0.10173505    -0.05250
C1682       C  0.21468176  0.54446558  0.06801416    -0.32680
C1683       C  0.18104218  0.53059082  0.05999878     0.36570
C1684       C  0.15331870  0.53261304  0.08542533    -0.05610
C1685       C  0.15906997  0.55165870  0.11730532    -0.32580
C1686       C  0.19325347  0.56460626  0.12573026     0.36470
H1687       H  0.23641352  0.53982789  0.04946158     0.16840
O1688       O  0.17576295  0.51424263  0.02752195    -0.60080
H1689       H  0.13778619  0.55426427  0.13671279     0.16860
O1690       O  0.19948553  0.57881451  0.15897975    -0.60180
H1691       H  0.19912288  0.60512679  0.15540365     0.43850
H1692       H  0.18630604  0.49001099  0.03007081     0.43810
C1693       C  0.33819843  0.72093096  0.90222695    -0.05250
C1694       C  0.37027775  0.70274372  0.90886536    -0.32680
C1695       C  0.37785543  0.68964693  0.94327565     0.36570
C1696       C  0.35284976  0.69405839  0.97105031    -0.05610
C1697       C  0.31913817  0.70805959  0.96308382    -0.32580
C1698       C  0.31187944  0.72196887  0.92917347     0.36470
H1699       H  0.39037563  0.70089739  0.88814160     0.16840
O1700       O  0.41119390  0.67638783  0.95052106    -0.60080
H1701       H  0.29982047  0.71195030  0.98430122     0.16860
O1702       O  0.27918845  0.73727983  0.92282647    -0.60180
H1703       H  0.28060643  0.76155510  0.93347893     0.43850
H1704       H  0.40835561  0.64999227  0.95030739     0.43810
C1705       C  0.78043415  0.44022326  0.89367940    -0.05250
C1706       C  0.78896806  0.44958381  0.92892849    -0.32680
C1707       C  0.82279758  0.46279596  0.93734474     0.36570
C1708       C  0.84913304  0.46557768  0.91054333    -0.05610
C1709       C  0.84208248  0.45177732  0.87636395    -0.32580
C1710       C  0.80764064  0.43970729  0.86765383     0.36470
H1711       H  0.76819389  0.45061643  0.94906813     0.16840
O1712       O  0.82961212  0.47394799  0.97169075    -0.60080
H1713       H  0.86235591  0.45292263  0.85575674     0.16860
O1714       O  0.79993634  0.43038837  0.83298605    -0.60180
H1715       H  0.79451749  0.45323261  0.82058407     0.43850
H1716       H  0.81860651  0.49801797  0.97357307     0.43810
C1717       C  0.47057497  0.35212043  0.80839990    -0.05250
C1718       C  0.45926596  0.32024712  0.79224018    -0.32680
C1719       C  0.42342046  0.31496195  0.78346646     0.36570
C1720       C  0.39788405  0.34144485  0.79161677    -0.05610
C1721       C  0.40862136  0.37186833  0.81091578    -0.32580
C1722       C  0.44490003  0.37762755  0.81870339     0.36470
H1723       H  0.47878620  0.30067136  0.78363819     0.16840
O1724       O  0.41360156  0.28376810  0.76674699    -0.60080
H1725       H  0.38923134  0.39211092  0.81806975     0.16860
O1726       O  0.45530574  0.40927198  0.83411177    -0.60180
H1727       H  0.45903629  0.42603559  0.81384357     0.43850
H1728       H  0.41944954  0.28740011  0.74111008     0.43810
C1729       C  0.64397997  0.30934506  0.03030794    -0.05250
C1730       C  0.67955034  0.30311619  0.03982389    -0.32680
C1731       C  0.68803737  0.29060169  0.07399092     0.36570
C1732       C  0.66077847  0.28464637  0.09928593    -0.05610
C1733       C  0.62584118  0.29528368  0.09134567    -0.32580
C1734       C  0.61723058  0.30714157  0.05675933     0.36470
H1735       H  0.70024512  0.30406192  0.01959827     0.16840
O1736       O  0.72279734  0.28198539  0.08167813    -0.60080
H1737       H  0.60482744  0.29163033  0.11089543     0.16860
O1738       O  0.58218732  0.31315032  0.04795381    -0.60180
H1739       H  0.57208834  0.28920526  0.04253183     0.43850
H1740       H  0.73299876  0.30374677  0.09291661     0.43810
C1741       C  0.65485770  0.96814011  0.91633086    -0.05250
C1742       C  0.66105034  0.95138376  0.88332913    -0.32680
C1743       C  0.69524707  0.93880872  0.87476881     0.36570
C1744       C  0.72331126  0.94231972  0.89966587    -0.05610
C1745       C  0.71589513  0.95491681  0.93412240    -0.32580
C1746       C  0.68212475  0.96823941  0.94243188     0.36470
H1747       H  0.64012956  0.95034527  0.86331371     0.16840
O1748       O  0.70197535  0.92701138  0.84070120    -0.60080
H1749       H  0.73733913  0.95810540  0.95337595     0.16860
O1750       O  0.67623456  0.98210586  0.97592263    -0.60180
H1751       H  0.68698597  0.00638221  0.97550063     0.43850
H1752       H  0.70163710  0.90051998  0.84239178     0.43810
C1753       C  0.34527100  0.03123226  0.08478071    -0.05250
C1754       C  0.31780319  0.02877206  0.05926815    -0.32680
C1755       C  0.28361224  0.04129194  0.06683982     0.36570
C1756       C  0.27613679  0.05583657  0.10067372    -0.05610
C1757       C  0.30422948  0.06145844  0.12498782    -0.32580
C1758       C  0.33885343  0.04955386  0.11705934     0.36470
H1759       H  0.32250146  0.01576627  0.03378482     0.16840
O1760       O  0.25658657  0.03481856  0.04288595    -0.60080
H1761       H  0.29862938  0.07192898  0.15142647     0.16860
O1762       O  0.36540156  0.05355081  0.14204049    -0.60180
H1763       H  0.36407467  0.03180397  0.15723010     0.43850
H1764       H  0.25347478  0.05760531  0.02962281     0.43810
C1765       C  0.58978696  0.15165289  0.97168330    -0.05250
C1766       C  0.56327321  0.17819541  0.97176417    -0.32680
C1767       C  0.57010872  0.21230627  0.95820855     0.36570
C1768       C  0.60422301  0.22076685  0.94510182    -0.05610
C1769       C  0.62981809  0.19343869  0.94200208    -0.32580
C1770       C  0.62260076  0.15879619  0.95483142     0.36470
H1771       H  0.53743238  0.17284351  0.98362244     0.16840
O1772       O  0.54487691  0.23856236  0.96234670    -0.60080
H1773       H  0.65646060  0.19979798  0.93273452     0.16860
O1774       O  0.64859669  0.13305135  0.95314597    -0.60180
H1775       H  0.66245723  0.13566731  0.97561656     0.43850
H1776       H  0.53279428  0.24031533  0.93879208     0.43810
C1777       C  0.41332116  0.84847443  0.02876479    -0.05250
C1778       C  0.38162604  0.84165213  0.04754719    -0.32680
C1779       C  0.37447617  0.80718126  0.06078936     0.36570
C1780       C  0.39952251  0.77949278  0.05593061    -0.05610
C1781       C  0.43290683  0.78764492  0.04128760    -0.32580
C1782       C  0.43973239  0.82159181  0.02724230     0.36470
H1783       H  0.36145775  0.86227704  0.04978335     0.16840
O1784       O  0.34145649  0.79980400  0.07471683    -0.60080
H1785       H  0.45226356  0.76652346  0.03702903     0.16860
O1786       O  0.47210500  0.82802119  0.01132402    -0.60180
H1787       H  0.47032570  0.81720325  0.98714191     0.43850
H1788       H  0.34478847  0.80029254  0.10105328     0.43810
C1789       C  0.34658893  0.80489159  0.47532867    -0.05250
C1790       C  0.37121343  0.81214929  0.44787729    -0.32680
C1791       C  0.36506862  0.79988656  0.41280909     0.36570
C1792       C  0.33436186  0.77946344  0.40527297    -0.05610
C1793       C  0.30833879  0.77539601  0.43202880    -0.32580
C1794       C  0.31404522  0.78831228  0.46659143     0.36470
H1795       H  0.39670294  0.82423362  0.45435530     0.16840
O1796       O  0.39035155  0.80570826  0.38695729    -0.60080
H1797       H  0.28392304  0.76083427  0.42649703     0.16860
O1798       O  0.28977941  0.78022365  0.49284953    -0.60180
H1799       H  0.27669270  0.80283138  0.49726040     0.43850
H1800       H  0.40685216  0.78505195  0.38869673     0.43810
C1801       C  0.46198411  0.89580898  0.77434510    -0.05250
C1802       C  0.48941840  0.87624907  0.79142205    -0.32680
C1803       C  0.49800845  0.88204062  0.82717382     0.36570
C1804       C  0.47769429  0.90589278  0.84745081    -0.05610
C1805       C  0.44764289  0.92242810  0.83195250    -0.32580
C1806       C  0.43990939  0.91782784  0.79534251     0.36470
H1807       H  0.50625090  0.85828674  0.77622943     0.16840
O1808       O  0.52794255  0.86630707  0.84133852    -0.60080
H1809       H  0.43188703  0.94106958  0.84751591     0.16860
O1810       O  0.41239816  0.93663129  0.78009436    -0.60180
H1811       H  0.42303261  0.95967801  0.77235875     0.43850
H1812       H  0.51959517  0.84333212  0.85162245     0.43810
C1813       C  0.30602594  0.02805370  0.64567304    -0.05250
C1814       C  0.30598928  0.04175894  0.68053712    -0.32680
C1815       C  0.29865432  0.07797853  0.68660079     0.36570
C1816       C  0.29180514  0.10107247  0.65755299    -0.05610
C1817       C  0.29468769  0.08809088  0.62255302    -0.32580
C1818       C  0.30123107  0.05163232  0.61650208     0.36470
H1819       H  0.30873460  0.02382314  0.70319623     0.16840
O1820       O  0.29731728  0.09046051  0.72109752    -0.60080
H1821       H  0.28976765  0.10571763  0.60003512     0.16860
O1822       O  0.30050630  0.03870822  0.58213823    -0.60180
H1823       H  0.27488968  0.03497471  0.57652331     0.43850
H1824       H  0.27271909  0.08533621  0.72939859     0.43810
C1825       C  0.21744936  0.93941389  0.61495526    -0.05250
C1826       C  0.21047530  0.94829131  0.57920056    -0.32680
C1827       C  0.17723005  0.96174604  0.56911000     0.36570
C1828       C  0.15000825  0.96581341  0.59480513    -0.05610
C1829       C  0.15548633  0.95273892  0.62959355    -0.32580
C1830       C  0.18929593  0.94016501  0.63993271     0.36470
H1831       H  0.23202701  0.94855319  0.55987292     0.16840
O1832       O  0.17223282  0.97271879  0.53439757    -0.60080
H1833       H  0.13446053  0.95472679  0.64935473     0.16860
O1834       O  0.19544508  0.93139663  0.67506555    -0.60180
H1835       H  0.20082196  0.95437478  0.68718629     0.43850
H1836       H  0.16161817  0.95182076  0.52198158     0.43810
C1837       C  0.40396587  0.16467448  0.28220606    -0.05250
C1838       C  0.43143660  0.18989179  0.27764404    -0.32680
C1839       C  0.46575114  0.18326080  0.29046046     0.36570
C1840       C  0.47343810  0.15056264  0.30746906    -0.05610
C1841       C  0.44535078  0.12688346  0.31530940    -0.32580
C1842       C  0.41056733  0.13396614  0.30310470     0.36470
H1843       H  0.42665298  0.21432686  0.26272781     0.16840
O1844       O  0.49267926  0.20658379  0.28170698    -0.60080
H1845       H  0.45103770  0.10131768  0.32778147     0.16860
O1846       O  0.38401073  0.10952616  0.30947746    -0.60180
H1847       H  0.38512264  0.09250652  0.28917456     0.43850
H1848       H  0.50039518  0.21727812  0.30471047     0.43810
C1849       C  0.55443882  0.09668581  0.22298547    -0.05250
C1850       C  0.53529572  0.06538029  0.21548578    -0.32680
C1851       C  0.52132185  0.05937066  0.18140118     0.36570
C1852       C  0.52753195  0.08429218  0.15363576    -0.05610
C1853       C  0.55060800  0.11326226  0.16003518    -0.32580
C1854       C  0.56378422  0.11974114  0.19466348     0.36470
H1855       H  0.52770393  0.04755560  0.23710648     0.16840
O1856       O  0.50101421  0.02930622  0.17570695    -0.60080
H1857       H  0.55656299  0.13208100  0.13878696     0.16860
O1858       O  0.58244220  0.15060621  0.20132257    -0.60180
H1859       H  0.60787806  0.14329933  0.20166385     0.43850
H1860       H  0.47711663  0.03506303  0.18554850     0.43810
C1861       C  0.85018197  0.02876815  0.41130335    -0.05250
C1862       C  0.84446283  0.05065555  0.38121098    -0.32680
C1863       C  0.81001080  0.06321636  0.37312215     0.36570
C1864       C  0.78122047  0.05458224  0.39573164    -0.05610
C1865       C  0.78795531  0.03665535  0.42795859    -0.32580
C1866       C  0.82182430  0.02320186  0.43554598     0.36470
H1867       H  0.86612415  0.05604720  0.36281315     0.16840
O1868       O  0.80411825  0.08078187  0.34143007    -0.60080
H1869       H  0.76598156  0.02957936  0.44545202     0.16860
O1870       O  0.82673352  0.00393779  0.46648059    -0.60180
H1871       H  0.81708276  0.97973008  0.46132132     0.43850
H1872       H  0.80366703  0.10655496  0.34778587     0.43810
C1873       C  0.15452887  0.03355133  0.91609810    -0.05250
C1874       C  0.18283908  0.02575066  0.93952754    -0.32680
C1875       C  0.21739917  0.03731481  0.93213379     0.36570
C1876       C  0.22432862  0.05679730  0.90070033    -0.05610
C1877       C  0.19566337  0.06773291  0.87904160    -0.32580
C1878       C  0.16066533  0.05678139  0.88698558     0.36470
H1879       H  0.17850901  0.00924179  0.96300143     0.16840
O1880       O  0.24493820  0.02645207  0.95386341    -0.60080
H1881       H  0.20077506  0.08213316  0.85438541     0.16860
O1882       O  0.13339515  0.06623936  0.86440206    -0.60180
H1883       H  0.12486821  0.08969178  0.87339970     0.43850
H1884       H  0.25000197  0.00133993  0.94687673     0.43810
C1885       C  0.02935254  0.91096088  0.15201009    -0.05250
C1886       C  0.02198153  0.93442436  0.18041337    -0.32680
C1887       C  0.03428476  0.92733773  0.21489984     0.36570
C1888       C  0.05411729  0.89615052  0.22174314    -0.05610
C1889       C  0.06439950  0.87430741  0.19296305    -0.32580
C1890       C  0.05253609  0.88185350  0.15802009     0.36470
H1891       H  0.00542802  0.95783304  0.17620252     0.16840
O1892       O  0.02390860  0.94917905  0.24254234    -0.60080
H1893       H  0.07909297  0.84985256  0.19801273     0.16860
O1894       O  0.06198484  0.85950406  0.13054001    -0.60180
H1895       H  0.04355019  0.84047492  0.13029888     0.43850
H1896       H  0.99911448  0.94185802  0.24836980     0.43810
C1897       C  0.90867858  0.15100530  0.03298932    -0.05250
C1898       C  0.93565060  0.17678659  0.03713028    -0.32680
C1899       C  0.92780890  0.21092115  0.04997770     0.36570
C1900       C  0.89237338  0.22004452  0.05803572    -0.05610
C1901       C  0.86595087  0.19327264  0.05728154    -0.32580
C1902       C  0.87403018  0.15865949  0.04511307     0.36470
H1903       H  0.96270937  0.17092491  0.02877939     0.16840
O1904       O  0.95397912  0.23661769  0.04975120    -0.60080
H1905       H  0.83841189  0.20018462  0.06269111     0.16860
O1906       O  0.84740130  0.13360999  0.04241490    -0.60180
H1907       H  0.83685566  0.13722699  0.01832221     0.43850
H1908       H  0.96256354  0.23794303  0.07482566     0.43810
C1909       C  0.84736753  0.96654006  0.08777890    -0.05250
C1910       C  0.82073339  0.96549870  0.06133350    -0.32680
C1911       C  0.78662975  0.95287609  0.06919590     0.36570
C1912       C  0.77839682  0.94192870  0.10421656    -0.05610
C1913       C  0.80583288  0.93963824  0.12981897    -0.32580
C1914       C  0.84043338  0.95151739  0.12161956     0.36470
H1915       H  0.82596239  0.97600972  0.03479457     0.16840
O1916       O  0.76023422  0.95607534  0.04390309    -0.60080
H1917       H  0.79962681  0.93192917  0.15707836     0.16860
O1918       O  0.86632062  0.95096319  0.14759402    -0.60180
H1919       H  0.86401504  0.97413528  0.16028649     0.43850
H1920       H  0.75780967  0.93187945  0.03331385     0.43810
C1921       C  0.97158945  0.09058158  0.84991072    -0.05250
C1922       C  0.95277372  0.12237382  0.84318018    -0.32680
C1923       C  0.94011783  0.12992745  0.80855926     0.36570
C1924       C  0.94550721  0.10511842  0.78070839    -0.05610
C1925       C  0.96024881  0.07163935  0.78868719    -0.32580
C1926       C  0.97381445  0.06448148  0.82272912     0.36470
H1927       H  0.95002457  0.14229043  0.86404559     0.16840
O1928       O  0.92594460  0.16297878  0.80135718    -0.60080
H1929       H  0.96488591  0.05247206  0.76742070     0.16860
O1930       O  0.98994722  0.03208996  0.82898389    -0.60180
H1931       H  0.01424928  0.03433184  0.81870121     0.43850
H1932       H  0.89972089  0.15939336  0.80169642     0.43810
C1933       C  0.08977159  0.85000785  0.96729374    -0.05250
C1934       C  0.06327023  0.82345720  0.96599288    -0.32680
C1935       C  0.07067289  0.78954590  0.95233612     0.36570
C1936       C  0.10536164  0.78130222  0.94072535    -0.05610
C1937       C  0.13092093  0.80880921  0.93861540    -0.32580
C1938       C  0.12313335  0.84327107  0.95145128     0.36470
H1939       H  0.03704218  0.82857039  0.97704956     0.16840
O1940       O  0.04539221  0.76313682  0.95537047    -0.60080
H1941       H  0.15793666  0.80264542  0.93039963     0.16860
O1942       O  0.14909467  0.86914948  0.95097680    -0.60180
H1943       H  0.16223600  0.86622666  0.97384187     0.43850
H1944       H  0.03458698  0.76113248  0.93122494     0.43810
C1945       C  0.52999142  0.41316569  0.65304706    -0.05250
C1946       C  0.55054028  0.38236326  0.65931669    -0.32680
C1947       C  0.56291704  0.37457454  0.69396497     0.36570
C1948       C  0.55537074  0.39814266  0.72234657    -0.05610
C1949       C  0.53890575  0.43093827  0.71500598    -0.32580
C1950       C  0.52570507  0.43832273  0.68089349     0.36470
H1951       H  0.55491192  0.36324244  0.63799423     0.16840
O1952       O  0.57898479  0.34227803  0.70055104    -0.60080
H1953       H  0.53271879  0.44916393  0.73670065     0.16860
O1954       O  0.50788793  0.46992919  0.67524538    -0.60180
H1955       H  0.48362671  0.46610249  0.68517076     0.43850
H1956       H  0.60493655  0.34750849  0.70091127     0.43810
C1957       C  0.65184310  0.53015377  0.41158043    -0.05250
C1958       C  0.65860312  0.54443862  0.37754053    -0.32680
C1959       C  0.69292584  0.55669008  0.36883386     0.36570
C1960       C  0.72029612  0.55586078  0.39474500    -0.05610
C1961       C  0.71210541  0.54589473  0.42989785    -0.32580
C1962       C  0.67834967  0.53255981  0.43830764     0.36470
H1963       H  0.63816147  0.54360656  0.35702375     0.16840
O1964       O  0.70036799  0.56648203  0.33423840    -0.60080
H1965       H  0.73303986  0.54463155  0.44992252     0.16860
O1966       O  0.67172734  0.52106067  0.47257658    -0.60180
H1967       H  0.68262154  0.49691999  0.47418854     0.43850
H1968       H  0.70582867  0.54382637  0.32158199     0.43810
C1969       C  0.39799982  0.72051831  0.55856632    -0.05250
C1970       C  0.43140104  0.71372093  0.54331360    -0.32680
C1971       C  0.43929830  0.68007415  0.52916840     0.36570
C1972       C  0.41395321  0.65215557  0.53110758    -0.05610
C1973       C  0.38226117  0.65775817  0.55028199    -0.32580
C1974       C  0.37403132  0.69188392  0.56365698     0.36470
H1975       H  0.44989390  0.73559283  0.53880601     0.16840
O1976       O  0.47166935  0.67493967  0.51282258    -0.60080
H1977       H  0.36288198  0.63637829  0.55279357     0.16860
O1978       O  0.34093838  0.69794191  0.57800291    -0.60180
H1979       H  0.34461772  0.69756949  0.60429374     0.43850
H1980       H  0.46912479  0.68561447  0.48861738     0.43810
C1981       C  0.58822315  0.34642885  0.47030419    -0.05250
C1982       C  0.56283940  0.31894223  0.47365337    -0.32680
C1983       C  0.56975044  0.28465983  0.46072345     0.36570
C1984       C  0.60284959  0.27702501  0.44484770    -0.05610
C1985       C  0.62697485  0.30513121  0.43844705    -0.32580
C1986       C  0.61963870  0.33989866  0.45073471     0.36470
H1987       H  0.53794671  0.32371192  0.48758344     0.16840
O1988       O  0.54599424  0.25765534  0.46798708    -0.60080
H1989       H  0.65286781  0.29944046  0.42692935     0.16860
O1990       O  0.64437604  0.36649022  0.44573225    -0.60180
H1991       H  0.66041524  0.36508645  0.46681009     0.43850
H1992       H  0.53166867  0.25494737  0.44583319     0.43810
C1993       C  0.34844608  0.46830285  0.58760203    -0.05250
C1994       C  0.32097620  0.47107211  0.56216164    -0.32680
C1995       C  0.28702093  0.45771539  0.56933765     0.36570
C1996       C  0.27969646  0.44220815  0.60283413    -0.05610
C1997       C  0.30786642  0.43618030  0.62694989    -0.32580
C1998       C  0.34235843  0.44873845  0.61926963     0.36470
H1999       H  0.32548750  0.48490158  0.53704731     0.16840
O2000       O  0.25993229  0.46446747  0.54552774    -0.60080
H2001       H  0.30242463  0.42482411  0.65307833     0.16860
O2002       O  0.36909724  0.44404565  0.64392196    -0.60180
H2003       H  0.36772780  0.46518762  0.65986590     0.43850
H2004       H  0.25602002  0.44153549  0.53279608     0.43810
C2005       C  0.46938847  0.58658185  0.34759658    -0.05250
C2006       C  0.45197978  0.61927325  0.34155476    -0.32680
C2007       C  0.43925753  0.62784467  0.30725708     0.36570
C2008       C  0.44328414  0.60324724  0.27899260    -0.05610
C2009       C  0.45645408  0.56897441  0.28629030    -0.32580
C2010       C  0.46997013  0.56069337  0.32011235     0.36470
H2011       H  0.45050810  0.63906902  0.36266887     0.16840
O2012       O  0.42668452  0.66166787  0.30066018    -0.60080
H2013       H  0.46000409  0.54994888  0.26468701     0.16860
O2014       O  0.48451457  0.52745563  0.32583155    -0.60180
H2015       H  0.50866536  0.52846961  0.31502446     0.43850
H2016       H  0.40032486  0.65932537  0.30084065     0.43810
C2017       C  0.60175319  0.72168561  0.05547890    -0.05250
C2018       C  0.62691413  0.69437441  0.06121441    -0.32680
C2019       C  0.62029250  0.65941141  0.04902656     0.36570
C2020       C  0.58858521  0.65197716  0.03019375    -0.05610
C2021       C  0.56222583  0.67856963  0.02768265    -0.32580
C2022       C  0.56841848  0.71300345  0.04057523     0.36470
H2023       H  0.65294885  0.70089414  0.07204986     0.16840
O2024       O  0.64593742  0.63359643  0.05327912    -0.60080
H2025       H  0.53712011  0.67300805  0.01434925     0.16860
O2026       O  0.54361873  0.73922576  0.03407242    -0.60180
H2027       H  0.53002558  0.74153390  0.05669361     0.43850
H2028       H  0.66132440  0.63557917  0.03179935     0.43810
C2029       C  0.65276658  0.46816234  0.08852335    -0.05250
C2030       C  0.65928640  0.45349752  0.12247148    -0.32680
C2031       C  0.69356390  0.44123699  0.13143558     0.36570
C2032       C  0.72119306  0.44250406  0.10588842    -0.05610
C2033       C  0.71329386  0.45299808  0.07078834    -0.32580
C2034       C  0.67950148  0.46602760  0.06206393     0.36470
H2035       H  0.63868262  0.45403123  0.14276935     0.16840
O2036       O  0.70068774  0.43095098  0.16597309    -0.60080
H2037       H  0.73442776  0.45477213  0.05107794     0.16860
O2038       O  0.67346749  0.47850284  0.02802988    -0.60180
H2039       H  0.66303499  0.45796988  0.01486969     0.43850
H2040       H  0.70568367  0.45345770  0.17910818     0.43810
C2041       C  0.41244103  0.34913962  0.97066324    -0.05250
C2042       C  0.37941636  0.34201132  0.95448224    -0.32680
C2043       C  0.37172210  0.30752122  0.94169745     0.36570
C2044       C  0.39769061  0.28031698  0.94389397    -0.05610
C2045       C  0.43203051  0.28888001  0.95589690    -0.32580
C2046       C  0.43937798  0.32279030  0.96974692     0.36470
H2047       H  0.35878648  0.36230076  0.95414775     0.16840
O2048       O  0.33788199  0.29972610  0.93001931    -0.60080
H2049       H  0.45206563  0.26808733  0.95826001     0.16860
O2050       O  0.47281478  0.32972935  0.98311078    -0.60180
H2051       H  0.47323018  0.31865970  0.00726421     0.43850
H2052       H  0.32412535  0.29395048  0.95194387     0.43810
C2053       C  0.27875750  0.55871579  0.89876249    -0.05250
C2054       C  0.28689467  0.54689765  0.93339017    -0.32680
C2055       C  0.32087173  0.53393369  0.94148566     0.36570
C2056       C  0.34753210  0.53312797  0.91485682    -0.05610
C2057       C  0.34076442  0.54922258  0.88161034    -0.32580
C2058       C  0.30633420  0.56150599  0.87327668     0.36470
H2059       H  0.26583258  0.54401128  0.95304909     0.16840
O2060       O  0.32715428  0.52018579  0.97498281    -0.60080
H2061       H  0.36130219  0.54977765  0.86124452     0.16860
O2062       O  0.29900885  0.57317870  0.83922542    -0.60180
H2063       H  0.29405914  0.55121281  0.82519053     0.43850
H2064       H  0.33742139  0.54029051  0.98891510     0.43810
C2065       C  0.47126035  0.64887395  0.69246301    -0.05250
C2066       C  0.44423646  0.62291461  0.68927234    -0.32680
C2067       C  0.40975989  0.62965838  0.70229475     0.36570
C2068       C  0.40242231  0.66245800  0.71920090    -0.05610
C2069       C  0.42852400  0.68947083  0.71906967    -0.32580
C2070       C  0.46254308  0.68303322  0.70544603     0.36470
H2071       H  0.45082342  0.59623451  0.68006451     0.16840
O2072       O  0.38446050  0.60315981  0.70091582    -0.60080
H2073       H  0.42295479  0.71532589  0.73095037     0.16860
O2074       O  0.48848255  0.70864520  0.70952377    -0.60180
H2075       H  0.48964057  0.72110560  0.68610711     0.43850
H2076       H  0.38762818  0.58927900  0.72334096     0.43810
C2077       C  0.55538133  0.60061989  0.77760540    -0.05250
C2078       C  0.56257749  0.62485215  0.80545933    -0.32680
C2079       C  0.55045567  0.61795676  0.84039150     0.36570
C2080       C  0.53024363  0.58691303  0.84732186    -0.05610
C2081       C  0.52616568  0.56131956  0.82010135    -0.32580
C2082       C  0.53896438  0.56774706  0.78567938     0.36470
H2083       H  0.57457489  0.65055833  0.79945837     0.16840
O2084       O  0.55627145  0.64280348  0.86675605    -0.60080
H2085       H  0.51176151  0.53666606  0.82518598     0.16860
O2086       O  0.53099474  0.54386753  0.75894473    -0.60180
H2087       H  0.55264774  0.52888511  0.75638117     0.43850
H2088       H  0.53565780  0.65935788  0.86538701     0.43810
C2089       C  0.64797496  0.04231604  0.59567500    -0.05250
C2090       C  0.67286068  0.03731299  0.56810991    -0.32680
C2091       C  0.70874632  0.04599703  0.57309216     0.36570
C2092       C  0.72053023  0.05914079  0.60633945    -0.05610
C2093       C  0.69534033  0.06650635  0.63316624    -0.32580
C2094       C  0.65906650  0.05850226  0.62784940     0.36470
H2095       H  0.66456400  0.02572962  0.54283379     0.16840
O2096       O  0.73279056  0.03802334  0.54662561    -0.60080
H2097       H  0.70418803  0.07574336  0.65919542     0.16860
O2098       O  0.63521379  0.06433651  0.65501687    -0.60180
H2099       H  0.63516914  0.04189473  0.66924107     0.43850
H2100       H  0.73679201  0.06091347  0.53376611     0.43810
C2101       C  0.44677586  0.10109707  0.72197809    -0.05250
C2102       C  0.43160093  0.12442429  0.69669406    -0.32680
C2103       C  0.43833578  0.11985772  0.65995506     0.36570
C2104       C  0.46141014  0.09237677  0.64850216    -0.05610
C2105       C  0.47398438  0.06747248  0.67370535    -0.32580
C2106       C  0.46665898  0.07152318  0.71005471     0.36470
H2107       H  0.41677723  0.14765081  0.70558436     0.16840
O2108       O  0.42467282  0.14400681  0.63593834    -0.60080
H2109       H  0.49042355  0.04515022  0.66532475     0.16860
O2110       O  0.48094971  0.04774081  0.73418485    -0.60180
H2111       H  0.50661362  0.05403034  0.73598040     0.43850
H2112       H  0.40025267  0.13527520  0.63055511     0.43810
C2113       C  0.55392196  0.90162184  0.27842477    -0.05250
C2114       C  0.57236803  0.88086915  0.30375542    -0.32680
C2115       C  0.56591208  0.88532050  0.34058475     0.36570
C2116       C  0.53977760  0.90989338  0.35218007    -0.05610
C2117       C  0.52370146  0.93250704  0.32681276    -0.32580
C2118       C  0.53079800  0.92875856  0.29037589     0.36470
H2119       H  0.58982438  0.85954143  0.29492665     0.16840
O2120       O  0.58333100  0.86380840  0.36466563    -0.60080
H2121       H  0.50488082  0.95286481  0.33513964     0.16860
O2122       O  0.51332042  0.95027871  0.26621334    -0.60180
H2123       H  0.48825445  0.94169388  0.26586212     0.43850
H2124       H  0.60657043  0.87578485  0.36901100     0.43810
C2125       C  0.59495282  0.85475718  0.53977361    -0.05250
C2126       C  0.62471011  0.84410123  0.56005775    -0.32680
C2127       C  0.63015993  0.80775914  0.56813616     0.36570
C2128       C  0.60495972  0.78203144  0.55712338    -0.05610
C2129       C  0.57357829  0.79330330  0.54016604    -0.32580
C2130       C  0.56866755  0.82915790  0.53102278     0.36470
H2131       H  0.64469085  0.86358805  0.56780427     0.16840
O2132       O  0.66119887  0.79734537  0.58459893    -0.60080
H2133       H  0.55422753  0.77369682  0.53111762     0.16860
O2134       O  0.53804174  0.83890185  0.51335011    -0.60180
H2135       H  0.54230861  0.83283521  0.48786953     0.43850
H2136       H  0.67847901  0.79346720  0.56490446     0.43810
C2137       C  0.35248964  0.96041890  0.41006985    -0.05250
C2138       C  0.34209825  0.93514241  0.38411936    -0.32680
C2139       C  0.30577971  0.92717678  0.37856083     0.36570
C2140       C  0.27956707  0.94401781  0.39958256    -0.05610
C2141       C  0.29033546  0.96618605  0.42786445    -0.32580
C2142       C  0.32616834  0.97493210  0.43283896     0.36470
H2143       H  0.36193756  0.92294011  0.36698322     0.16840
O2144       O  0.29606896  0.90547666  0.35062453    -0.60080
H2145       H  0.27044741  0.97937988  0.44425212     0.16860
O2146       O  0.33509152  0.99792145  0.46006737    -0.60180
H2147       H  0.33015995  0.02225977  0.45059829     0.43850
H2148       H  0.29383060  0.88121026  0.36120257     0.43810
C2149       C  0.08583734  0.65229931  0.47218116    -0.05250
C2150       C  0.05921747  0.67872012  0.47349206    -0.32680
C2151       C  0.06539533  0.71294913  0.45990321     0.36570
C2152       C  0.09893008  0.72155830  0.44548726    -0.05610
C2153       C  0.12435432  0.69429899  0.44093322    -0.32580
C2154       C  0.11784812  0.65962299  0.45393405     0.36470
H2155       H  0.03389408  0.67319125  0.48634802     0.16840
O2156       O  0.04028803  0.73911537  0.46518682    -0.60080
H2157       H  0.15057297  0.70078887  0.43059401     0.16860
O2158       O  0.14389345  0.63403537  0.45108353    -0.60180
H2159       H  0.15872512  0.63674576  0.47291410     0.43850
H2160       H  0.02695640  0.74061864  0.44229549     0.43810
C2161       C  0.02841945  0.58388397  0.65445921    -0.05250
C2162       C  0.02461968  0.55783317  0.68133707    -0.32680
C2163       C  0.03779978  0.56374700  0.71577673     0.36570
C2164       C  0.05465579  0.59633555  0.72399873    -0.05610
C2165       C  0.06178231  0.62081423  0.69632409    -0.32580
C2166       C  0.04923975  0.61447962  0.66145770     0.36470
H2167       H  0.01009476  0.53330000  0.67603399     0.16840
O2168       O  0.03087165  0.53918715  0.74224516    -0.60080
H2169       H  0.07398283  0.64638406  0.70249200     0.16860
O2170       O  0.05446859  0.63989486  0.63549646    -0.60180
H2171       H  0.07802400  0.63415158  0.62490446     0.43850
H2172       H  0.00592955  0.54380714  0.74979435     0.43810
C2173       C  0.84575369  0.52878774  0.58419374    -0.06690
C2174       C  0.84007903  0.55106844  0.61392737    -0.32680
C2175       C  0.80590927  0.56471144  0.62106994     0.36570
C2176       C  0.77731230  0.55665736  0.59793988    -0.05610
C2177       C  0.78416634  0.53844281  0.56595354    -0.32580
C2178       C  0.81779433  0.52397624  0.55926040     0.36470
H2179       H  0.86149695  0.55597357  0.63280104     0.16840
O2180       O  0.79988553  0.58245122  0.65258993    -0.60080
H2181       H  0.76232515  0.53179544  0.54807876     0.16860
O2182       O  0.82282042  0.50449552  0.52854276    -0.60180
H2183       H  0.81255327  0.48052550  0.53363967     0.43850
H2184       H  0.80006284  0.60821901  0.64614023     0.43810
C2185       C  0.97143953  0.41469206  0.34611480    -0.05250
C2186       C  0.97672271  0.43991030  0.31871500    -0.32680
C2187       C  0.96428574  0.43352756  0.28410920     0.36570
C2188       C  0.94653162  0.40132613  0.27622702    -0.05610
C2189       C  0.93815197  0.37762746  0.30421024    -0.32580
C2190       C  0.95017788  0.38434784  0.33920728     0.36470
H2191       H  0.99177469  0.46417029  0.32379146     0.16840
O2192       O  0.97260348  0.45725082  0.25727580    -0.60080
H2193       H  0.92516814  0.35238302  0.29832408     0.16860
O2194       O  0.94305507  0.35999836  0.36574525    -0.60180
H2195       H  0.96305200  0.34267477  0.36494155     0.43850
H2196       H  0.99766557  0.45189302  0.25064625     0.43810
C2197       C  0.91443149  0.34613535  0.52820628    -0.05250
C2198       C  0.88397821  0.33965200  0.54910275    -0.32680
C2199       C  0.87697432  0.30510896  0.56221874     0.36570
C2200       C  0.90093186  0.27701466  0.55498261    -0.05610
C2201       C  0.93334365  0.28468517  0.53804374    -0.32580
C2202       C  0.94008586  0.31875787  0.52443124     0.36470
H2203       H  0.86454317  0.36068595  0.55322959     0.16840
O2204       O  0.84496067  0.29821508  0.57854499    -0.60080
H2205       H  0.95179721  0.26321325  0.53192270     0.16860
O2206       O  0.97113446  0.32448295  0.50585825    -0.60180
H2207       H  0.98828881  0.33376674  0.52380821     0.43850
H2208       H  0.85024356  0.29851813  0.60456732     0.43810
C2209       C  0.15317471  0.46956324  0.41676147    -0.05250
C2210       C  0.18039791  0.47427937  0.44222363    -0.32680
C2211       C  0.21470929  0.46125598  0.43610071     0.36570
C2212       C  0.22249954  0.44344715  0.40392776    -0.05610
C2213       C  0.19458410  0.43549387  0.38005549    -0.32580
C2214       C  0.15987786  0.44813996  0.38649218     0.36470
H2215       H  0.17547322  0.48943430  0.46644177     0.16840
O2216       O  0.24147159  0.46933934  0.45990846    -0.60080
H2217       H  0.20039123  0.42249786  0.35481327     0.16860
O2218       O  0.13349190  0.44150972  0.36190793    -0.60180
H2219       H  0.13490962  0.46153168  0.34452529     0.43850
H2220       H  0.24851558  0.49436898  0.45442420     0.43810
C2221       C  0.30553698  0.52722956  0.35196503    -0.05250
C2222       C  0.29027243  0.53480930  0.31858682    -0.32680
C2223       C  0.27650867  0.56875237  0.31125909     0.36570
C2224       C  0.27880555  0.59613681  0.33718737    -0.05610
C2225       C  0.29807075  0.58976397  0.36881106    -0.32580
C2226       C  0.31111918  0.55536088  0.37644267     0.36470
H2227       H  0.28546650  0.51333618  0.29967438     0.16840
O2228       O  0.26017939  0.57470936  0.27887738    -0.60080
H2229       H  0.30089256  0.61075020  0.38860349     0.16860
O2230       O  0.32556440  0.54853439  0.40948840    -0.60180
H2231       H  0.35173872  0.54833993  0.40564443     0.43850
H2232       H  0.23596815  0.56420868  0.28121673     0.43810
C2233       C  0.34549470  0.28580041  0.60406964    -0.05250
C2234       C  0.32809578  0.26531665  0.57783111    -0.32680
C2235       C  0.33302961  0.27220037  0.54160894     0.36570
C2236       C  0.35689566  0.29916520  0.53046150    -0.05610
C2237       C  0.37254311  0.32147516  0.55629920    -0.32580
C2238       C  0.36637674  0.31540370  0.59301723     0.36470
H2239       H  0.31063271  0.24342611  0.58529726     0.16840
O2240       O  0.31665023  0.25029950  0.51707722    -0.60080
H2241       H  0.39099125  0.34227388  0.54815842     0.16860
O2242       O  0.38232960  0.33736326  0.61768969    -0.60180
H2243       H  0.36599962  0.35812114  0.62008937     0.43850
H2244       H  0.29572039  0.26400130  0.50843541     0.43810
C2245       C  0.41130099  0.14697719  0.45872950    -0.05250
C2246       C  0.38056728  0.15846609  0.44057637    -0.32680
C2247       C  0.37628590  0.19471290  0.43164896     0.36570
C2248       C  0.40322366  0.21958078  0.44032693    -0.05610
C2249       C  0.43548410  0.20724027  0.45468980    -0.32580
C2250       C  0.43959742  0.17131580  0.46404271     0.36470
H2251       H  0.35898659  0.13985126  0.43544023     0.16840
O2252       O  0.34414537  0.20622782  0.41839864    -0.60080
H2253       H  0.45621767  0.22615627  0.46194376     0.16860
O2254       O  0.47085530  0.16057267  0.47987175    -0.60180
H2255       H  0.48737078  0.15568840  0.45974276     0.43850
H2256       H  0.34768149  0.20812233  0.39217070     0.43810
C2257       C  0.52824528  0.35204574  0.30791716    -0.05250
C2258       C  0.55634170  0.37612122  0.31437455    -0.32680
C2259       C  0.59098168  0.36846975  0.30231878     0.36570
C2260       C  0.59733290  0.33680612  0.28294827    -0.05610
C2261       C  0.56984524  0.31143482  0.27964778    -0.32580
C2262       C  0.53568029  0.31865847  0.29233310     0.36470
H2263       H  0.55075863  0.40220479  0.32570443     0.16840
O2264       O  0.61761356  0.39317058  0.30724119    -0.60080
H2265       H  0.57451186  0.28637944  0.26582131     0.16860
O2266       O  0.50864802  0.29498191  0.28492873    -0.60180
H2267       H  0.50158310  0.28492795  0.30844155     0.43850
H2268       H  0.61632292  0.40915909  0.28607592     0.43810
C2269       C  0.46963072  0.41495378  0.15426170    -0.05250
C2270       C  0.47324227  0.44116467  0.18095790    -0.32680
C2271       C  0.46023761  0.43533804  0.21540397     0.36570
C2272       C  0.44410644  0.40247374  0.22401485    -0.05610
C2273       C  0.43721761  0.37766592  0.19658156    -0.32580
C2274       C  0.44956771  0.38393127  0.16162396     0.36470
H2275       H  0.48750543  0.46581573  0.17547589     0.16840
O2276       O  0.46787450  0.45977858  0.24172440    -0.60080
H2277       H  0.42542829  0.35196635  0.20301582     0.16860
O2278       O  0.44420312  0.35849436  0.13573005    -0.60180
H2279       H  0.46492718  0.34213068  0.13764910     0.43850
H2280       H  0.44597280  0.47442214  0.24412197     0.43810
C2281       C  0.83484150  0.71773400  0.59660445    -0.05250
C2282       C  0.86579651  0.69759284  0.59025570    -0.32680
C2283       C  0.87341173  0.68516167  0.55561859     0.36570
C2284       C  0.84958574  0.69234740  0.52730851    -0.05610
C2285       C  0.81673953  0.70846006  0.53478298    -0.32580
C2286       C  0.80934668  0.72133645  0.56896633     0.36470
H2287       H  0.88517580  0.69370605  0.61144427     0.16840
O2288       O  0.90583029  0.66961163  0.54890611    -0.60080
H2289       H  0.79838466  0.71455357  0.51315637     0.16860
O2290       O  0.77789000  0.73925065  0.57452824    -0.60180
H2291       H  0.76102946  0.72088674  0.58354257     0.43850
H2292       H  0.90109152  0.64348535  0.54876592     0.43810
C2293       C  0.71922796  0.59937262  0.84205475    -0.05250
C2294       C  0.71252695  0.57478689  0.81442516    -0.32680
C2295       C  0.69994350  0.54039082  0.82197886     0.36570
C2296       C  0.69461304  0.52983149  0.85766517    -0.05610
C2297       C  0.69833163  0.55540748  0.88509291    -0.32580
C2298       C  0.71040161  0.59017930  0.87742187     0.36470
H2299       H  0.71859521  0.58181040  0.78693495     0.16840
O2300       O  0.69736288  0.51589633  0.79477962    -0.60080
H2301       H  0.69522503  0.54735498  0.91279000     0.16860
O2302       O  0.71620067  0.61385493  0.90485209    -0.60180
H2303       H  0.74107357  0.60941347  0.91279511     0.43850
H2304       H  0.67169959  0.51536981  0.78832775     0.43810
C2305       C  0.59914185  0.84101064  0.71275662    -0.05250
C2306       C  0.56897102  0.81885790  0.71536507    -0.32680
C2307       C  0.53669730  0.82860392  0.69931474     0.36570
C2308       C  0.53372762  0.86164832  0.68132303    -0.05610
C2309       C  0.56466721  0.88205721  0.67557728    -0.32580
C2310       C  0.59745266  0.87151142  0.69046840     0.36470
H2311       H  0.57004350  0.79432214  0.73082836     0.16840
O2312       O  0.50707156  0.80762843  0.70473881    -0.60080
H2313       H  0.56271704  0.90783493  0.66240812     0.16860
O2314       O  0.62681028  0.89286831  0.68561821    -0.60180
H2315       H  0.63735344  0.88488770  0.66262298     0.43850
H2316       H  0.49831520  0.81381405  0.72899684     0.43810
C2317       C  0.78170009  0.90127693  0.65990075    -0.05250
C2318       C  0.79421309  0.90897163  0.62541207    -0.32680
C2319       C  0.80621318  0.94359614  0.61704729     0.36570
C2320       C  0.80688874  0.97033652  0.64368173    -0.05610
C2321       C  0.79838065  0.96120905  0.67899247    -0.32580
C2322       C  0.78558371  0.92708610  0.68715998     0.36470
H2323       H  0.79214579  0.88908362  0.60442562     0.16840
O2324       O  0.81432846  0.95198485  0.58223752    -0.60080
H2325       H  0.79801698  0.98166880  0.69955226     0.16860
O2326       O  0.77493647  0.91984831  0.72154499    -0.60180
H2327       H  0.79612561  0.90920364  0.73336050     0.43850
H2328       H  0.79115161  0.95759851  0.57069497     0.43810
C2329       C  0.64673168  0.80828680  0.97061782    -0.05250
C2330       C  0.62083617  0.81153570  0.94349375    -0.32680
C2331       C  0.62792076  0.79953807  0.90855761     0.36570
C2332       C  0.66098245  0.78351888  0.90086325    -0.05610
C2333       C  0.68784107  0.78363668  0.92717342    -0.32580
C2334       C  0.68105848  0.79623537  0.96163943     0.36470
H2335       H  0.59405593  0.82006655  0.95023767     0.16840
O2336       O  0.60154520  0.80097025  0.88312389    -0.60080
H2337       H  0.71384949  0.77236245  0.92142913     0.16860
O2338       O  0.70663680  0.79206718  0.98762471    -0.60180
H2339       H  0.71828623  0.81581032  0.98969125     0.43850
H2340       H  0.58801194  0.77831676  0.88588162     0.43810
C2341       C  0.90209902  0.66405648  0.78089971    -0.05250
C2342       C  0.92967763  0.68864495  0.77412405    -0.32680
C2343       C  0.96421491  0.68252049  0.78665486     0.36570
C2344       C  0.97191165  0.65115592  0.80599918    -0.05610
C2345       C  0.94378804  0.62829604  0.81586352    -0.32580
C2346       C  0.90880152  0.63494946  0.80395733     0.36470
H2347       H  0.92481362  0.71211653  0.75775576     0.16840
O2348       O  0.99114517  0.70543693  0.77680229    -0.60080
H2349       H  0.94948270  0.60363033  0.83003365     0.16860
O2350       O  0.88224214  0.61111953  0.81224679    -0.60180
H2351       H  0.87270613  0.61934012  0.83558501     0.43850
H2352       H  0.99724560  0.69886747  0.75181494     0.43810
C2353       C  0.78207291  0.09768302  0.83722568    -0.05250
C2354       C  0.77875611  0.07067965  0.81127659    -0.32680
C2355       C  0.79138179  0.03618471  0.81776302     0.36570
C2356       C  0.80695236  0.02783589  0.85097876    -0.05610
C2357       C  0.81330636  0.05546917  0.87572044    -0.32580
C2358       C  0.80129981  0.09045600  0.86882567     0.36470
H2359       H  0.76503125  0.07598770  0.78626797     0.16840
O2360       O  0.78410252  0.00966673  0.79342868    -0.60080
H2361       H  0.82455995  0.04922819  0.90171881     0.16860
O2362       O  0.80617796  0.11654696  0.89415570    -0.60180
H2363       H  0.78506124  0.11487356  0.91003009     0.43850
H2364       H  0.80627277  0.00701956  0.77924626     0.43810
C2365       C  0.53084966  0.14958371  0.80763244    -0.05250
C2366       C  0.53823797  0.18275408  0.79184344    -0.32680
C2367       C  0.57203702  0.19003218  0.77802911     0.36570
C2368       C  0.59950702  0.16437119  0.78101893    -0.05610
C2369       C  0.59335717  0.13313551  0.80101011    -0.32580
C2370       C  0.55904369  0.12547878  0.81399670     0.36470
H2371       H  0.51670843  0.20138371  0.78648048     0.16840
O2372       O  0.57773573  0.22202778  0.76084556    -0.60080
H2373       H  0.61443540  0.11359565  0.80438581     0.16860
O2374       O  0.55242696  0.09274785  0.82923418    -0.60180
H2375       H  0.55241204  0.09717299  0.85540854     0.43850
H2376       H  0.56731883  0.21898380  0.73660351     0.43810
C2377       C  0.65232225  0.19185008  0.52843457    -0.05250
C2378       C  0.68558664  0.20677914  0.53672492    -0.32680
C2379       C  0.69212166  0.22094763  0.57066925     0.36570
C2380       C  0.66557345  0.21918489  0.59736342    -0.05610
C2381       C  0.63411233  0.19999466  0.59048037    -0.32580
C2382       C  0.62722854  0.18665494  0.55602777     0.36470
H2383       H  0.70497981  0.21127346  0.51568048     0.16840
O2384       O  0.72428728  0.23728088  0.57726892    -0.60080
H2385       H  0.61386852  0.19758063  0.61101001     0.16860
O2386       O  0.59431670  0.17247135  0.54850625    -0.60180
H2387       H  0.59770976  0.14616302  0.54943163     0.43850
H2388       H  0.72228994  0.26146581  0.56644039     0.43810
C2389       C  0.71876608  0.40410253  0.66420478    -0.05250
C2390       C  0.72289746  0.43113016  0.69001798    -0.32680
C2391       C  0.71021063  0.46563300  0.68381470     0.36570
C2392       C  0.69376408  0.47392663  0.65100783    -0.05610
C2393       C  0.68635162  0.44622869  0.62666151    -0.32580
C2394       C  0.69846213  0.41124958  0.63327339     0.36470
H2395       H  0.73739104  0.42586517  0.71459683     0.16840
O2396       O  0.71839611  0.49219516  0.70781029    -0.60080
H2397       H  0.67431753  0.45242364  0.60100506     0.16860
O2398       O  0.69265721  0.38509881  0.60820229    -0.60180
H2399       H  0.71322254  0.38666899  0.59160879     0.43850
H2400       H  0.69570649  0.49743469  0.72033431     0.43810
C2401       C  0.84267904  0.28189067  0.89981332    -0.05250
C2402       C  0.81487564  0.28823614  0.92414790    -0.32680
C2403       C  0.82198969  0.30126181  0.95843571     0.36570
C2404       C  0.85742198  0.30729913  0.96911605    -0.05610
C2405       C  0.88492300  0.30429121  0.94367076    -0.32580
C2406       C  0.87766630  0.29183412  0.90897044     0.36470
H2407       H  0.78763567  0.28147376  0.91705519     0.16840
O2408       O  0.79472858  0.30335392  0.98280314    -0.60080
H2409       H  0.91242515  0.30808430  0.95182603     0.16860
O2410       O  0.90518651  0.28668775  0.88538722    -0.60180
H2411       H  0.91376511  0.26200201  0.89003068     0.43850
H2412       H  0.78798062  0.32900428  0.98336078     0.43810
C2413       C  0.90185942  0.33987448  0.71504294    -0.05250
C2414       C  0.92883143  0.31385921  0.71401597    -0.32680
C2415       C  0.96249847  0.32200569  0.70040645     0.36570
C2416       C  0.96987383  0.35686278  0.68827362    -0.05610
C2417       C  0.94189071  0.38176248  0.68568308    -0.32580
C2418       C  0.90769341  0.37317032  0.69838570     0.36470
H2419       H  0.92429876  0.28751501  0.72532575     0.16840
O2420       O  0.98930978  0.29710323  0.70303682    -0.60080
H2421       H  0.94741767  0.40892165  0.67711956     0.16860
O2422       O  0.88141095  0.39865430  0.69774482    -0.60180
H2423       H  0.86953900  0.39572105  0.67418249     0.43850
H2424       H  0.99806695  0.29868926  0.72806831     0.43810
C2425       C  0.78956852  0.60257197  0.15708582    -0.05250
C2426       C  0.81085453  0.59173196  0.12810511    -0.32680
C2427       C  0.81922484  0.55538138  0.12322315     0.36570
C2428       C  0.80697350  0.52971331  0.14796520    -0.05610
C2429       C  0.78898332  0.54116856  0.17873209    -0.32580
C2430       C  0.77982131  0.57705736  0.18318033     0.36470
H2431       H  0.81931973  0.61111313  0.10826712     0.16840
O2432       O  0.83633783  0.54485675  0.09258728    -0.60080
H2433       H  0.77919612  0.52165678  0.19786062     0.16860
O2434       O  0.76114952  0.58689999  0.21317241    -0.60180
H2435       H  0.73591619  0.58077371  0.20795078     0.43850
H2436       H  0.86190450  0.54331904  0.09926333     0.43810
C2437       C  0.85718251  0.80650848  0.03055051    -0.05250
C2438       C  0.82270014  0.79914015  0.04287650    -0.32680
C2439       C  0.81677396  0.79097620  0.07888085     0.36570
C2440       C  0.84553498  0.79028872  0.10321953    -0.05610
C2441       C  0.87955674  0.80062689  0.09159873    -0.32580
C2442       C  0.88562214  0.80805936  0.05526282     0.36470
H2443       H  0.80080393  0.79690027  0.02401466     0.16840
O2444       O  0.78295261  0.78217986  0.08977768    -0.60080
H2445       H  0.90177487  0.80070045  0.11018278     0.16860
O2446       O  0.91978455  0.81422072  0.04364262    -0.60180
H2447       H  0.92994658  0.79016883  0.03893324     0.43850
H2448       H  0.77172743  0.80522533  0.09655015     0.43810
C2449       C  0.60263467  0.65844646  0.20923393    -0.05250
C2450       C  0.57757089  0.68354560  0.22137577    -0.32680
C2451       C  0.54140511  0.67959746  0.21367256     0.36570
C2452       C  0.52938316  0.64962697  0.19431422    -0.05610
C2453       C  0.55449953  0.62583643  0.17982574    -0.32580
C2454       C  0.59113522  0.63046552  0.18667000     0.36470
H2455       H  0.58597275  0.70604340  0.23764671     0.16840
O2456       O  0.51751835  0.70324763  0.22826126    -0.60080
H2457       H  0.54555220  0.60228834  0.16547077     0.16860
O2458       O  0.61499783  0.60591041  0.17372206    -0.60180
H2459       H  0.62058006  0.61408065  0.14908726     0.43850
H2460       H  0.51022104  0.71899282  0.20817205     0.43810
C2461       C  0.65741987  0.71059623  0.39674690    -0.05250
C2462       C  0.68248893  0.72215285  0.42220123    -0.32680
C2463       C  0.67787193  0.71477230  0.45850661     0.36570
C2464       C  0.64754563  0.69588991  0.47016257    -0.05610
C2465       C  0.62374976  0.68194067  0.44464353    -0.32580
C2466       C  0.62889197  0.68866504  0.40794117     0.36470
H2467       H  0.70546374  0.73777720  0.41402483     0.16840
O2468       O  0.70194929  0.72807460  0.48285467    -0.60080
H2469       H  0.59989510  0.66803866  0.45331652     0.16860
O2470       O  0.60439931  0.67618047  0.38368522    -0.60180
H2471       H  0.61214745  0.65143484  0.37810238     0.43850
H2472       H  0.69621051  0.75388616  0.48520122     0.43810
C2473       C  0.89944309  0.83803948  0.29134427    -0.05250
C2474       C  0.91077719  0.86683785  0.31269350    -0.32680
C2475       C  0.94718096  0.87145536  0.32059964     0.36570
C2476       C  0.97237176  0.84648926  0.30804655    -0.05610
C2477       C  0.96040552  0.81579792  0.29015119    -0.32580
C2478       C  0.92441809  0.81153697  0.28160301     0.36470
H2479       H  0.89179435  0.88688790  0.32132406     0.16840
O2480       O  0.95818764  0.90176308  0.33812980    -0.60080
H2481       H  0.97953361  0.79660659  0.27994159     0.16860
O2482       O  0.91416317  0.78194225  0.26244438    -0.60180
H2483       H  0.90960717  0.76313693  0.28063416     0.43850
H2484       H  0.96211972  0.91984140  0.31907239     0.43810
C2485       C  0.71183263  0.89684954  0.34238137    -0.05250
C2486       C  0.71786732  0.92115183  0.31434501    -0.32680
C2487       C  0.70915339  0.95727804  0.31805169     0.36570
C2488       C  0.69492502  0.96988164  0.35047372    -0.05610
C2489       C  0.68647364  0.94524606  0.37763341    -0.32580
C2490       C  0.69454375  0.90875392  0.37360218     0.36470
H2491       H  0.73019109  0.91220219  0.28969639     0.16840
O2492       O  0.71796242  0.98075065  0.29121354    -0.60080
H2493       H  0.67635204  0.95473533  0.40306402     0.16860
O2494       O  0.68762757  0.88549580  0.40115388    -0.60180
H2495       H  0.70943854  0.88578503  0.41622080     0.43850
H2496       H  0.69549927  0.98464246  0.27770700     0.43810
loop_ 
_geom_bond_atom_site_label_1 
_geom_bond_atom_site_label_2 
_geom_bond_distance 
_geom_bond_site_symmetry_2 
_ccdc_geom_bond_type 
O1           Mg3   2.117       .  S
O1           Mg9   2.129       .  S
O1           C36   1.241       .  S
C2           O15   1.241       .  S
C2           O39   1.275       .  A
C2           H41   1.081       .  S
Mg3          O32   2.130       .  S
Mg3          O47   2.301       .  S
Mg3          O43   2.274       .  S
Mg3          O14   2.308       .  S
O4          Mg46   2.123       .  S
O4          Mg29   2.118       .  S
O4           C25   1.241       .  S
O5           C36   1.275       .  A
O5          Mg29   2.310       .  S
C6            O8   1.271       .  A
C6           O20   1.276       .  A
C6         C2485   1.476       .  S
O7           C35   1.275       .  A
O7           Mg9   2.309       .  S
O8          Mg40   2.269       .  S
Mg9          O15   2.119       .  S
Mg9          O23   2.273       .  S
Mg9          O11   2.304       .  S
C10          O48   1.271       .  A
C10          O16   1.275       .  A
C10        C2473   1.480       .  S
O11          C18   1.276       .  A
H12          C25   1.081       .  S
C13          O27   1.241       .  S
C13          O28   1.275       .  A
C13          H38   1.081       .  S
O14          C37   1.274       .  A
O15         Mg29   2.127       .  S
O16         Mg46   2.300       .  S
C17          O30   1.270       .  A
C17          O22   1.275       .  A
C17        C2440   1.473       .  S
C18          O45   1.271       .  A
C18        C2425   1.480       .  S
Mg19         O26   2.116       .  S
Mg19         O27   2.126       .  S
Mg19         O20   2.312       .  S
Mg19         O21   2.311       .  S
Mg19         O48   2.274       .  S
O21          C25   1.275       .  A
O22         Mg29   2.312       .  S
O23          C42   1.271       .  A
O24          C44   1.276       .  A
O24         Mg40   2.302       .  S
O26         Mg40   2.123       .  S
O26          C37   1.241       .  S
O27         Mg46   2.117       .  S
O28         Mg40   2.311       .  S
Mg29         O45   2.270       .  S
O30         Mg46   2.270       .  S
H31          C36   1.081       .  S
O32         Mg40   2.117       .  S
O32          C35   1.241       .  S
H33          C35   1.081       .  S
H34          C37   1.081       .  S
O39         Mg46   2.310       .  S
C42          O47   1.276       .  A
C42        C2449   1.479       .  S
O43          C44   1.271       .  A
C44        C2461   1.480       .  S
O49         Mg51   2.116       .  S
O49         Mg57   2.121       .  S
O49          C84   1.241       .  S
C50          O63   1.241       .  S
C50          O87   1.275       .  A
C50          H89   1.081       .  S
Mg51         O80   2.123       .  S
Mg51         O95   2.321       .  S
Mg51         O91   2.242       .  S
Mg51         O62   2.304       .  S
O52         Mg94   2.113       .  S
O52         Mg77   2.122       .  S
O52          C73   1.241       .  S
O53          C84   1.274       .  A
O53         Mg77   2.307       .  S
C54          O56   1.270       .  A
C54          O68   1.275       .  A
C54        C2389   1.478       .  S
O55          C83   1.274       .  A
O55         Mg57   2.304       .  S
O56         Mg88   2.233       .  S
Mg57         O63   2.122       .  S
Mg57         O71   2.243       .  S
Mg57         O59   2.332       .  S
C58          O96   1.270       .  A
C58          O64   1.274       .  A
C58        C2380   1.476       .  S
O59          C66   1.276       .  A
H60          C73   1.081       .  S
C61          O75   1.241       .  S
C61          O76   1.274       .  A
C61          H86   1.081       .  S
O62          C85   1.274       .  A
O63         Mg77   2.115       .  S
O64         Mg94   2.324       .  S
C65          O78   1.269       .  A
C65          O70   1.274       .  A
C65        C2368   1.477       .  S
C66          O93   1.271       .  A
C66        C2353   1.478       .  S
Mg67         O74   2.114       .  S
Mg67         O75   2.114       .  S
Mg67         O68   2.327       .  S
Mg67         O69   2.315       .  S
Mg67         O96   2.237       .  S
O69          C73   1.275       .  A
O70         Mg77   2.326       .  S
O71          C90   1.272       .  A
O72          C92   1.273       .  A
O72         Mg88   2.310       .  S
O74         Mg88   2.116       .  S
O74          C85   1.241       .  S
O75         Mg94   2.116       .  S
O76         Mg88   2.308       .  S
Mg77         O93   2.237       .  S
O78         Mg94   2.234       .  S
H79          C84   1.081       .  S
O80         Mg88   2.115       .  S
O80          C83   1.241       .  S
H81          C83   1.081       .  S
H82          C85   1.081       .  S
O87         Mg94   2.314       .  S
C90          O95   1.275       .  A
C90        C2401   1.472       .  S
O91          C92   1.272       .  A
C92        C2413   1.475       .  S
O97         Mg99   2.118       .  S
O97        Mg105   2.114       .  S
O97         C132   1.241       .  S
C98         O111   1.241       .  S
C98         O135   1.275       .  A
C98         H137   1.081       .  S
Mg99        O128   2.112       .  S
Mg99        O143   2.332       .  S
Mg99        O139   2.235       .  S
Mg99        O110   2.313       .  S
O100       Mg142   2.124       .  S
O100       Mg125   2.110       .  S
O100        C121   1.240       .  S
O101        C132   1.274       .  A
O101       Mg125   2.306       .  S
C102        O104   1.272       .  A
C102        O116   1.275       .  A
C102       C2293   1.474       .  S
O103        C131   1.275       .  A
O103       Mg105   2.314       .  S
O104       Mg136   2.245       .  S
Mg105       O111   2.115       .  S
Mg105       O119   2.231       .  S
Mg105       O107   2.319       .  S
C106        O144   1.272       .  A
C106        O112   1.278       .  A
C106       C2332   1.478       .  S
O107        C114   1.274       .  A
H108        C121   1.081       .  S
C109        O123   1.241       .  S
C109        O124   1.275       .  A
C109        H134   1.081       .  S
O110        C133   1.275       .  A
O111       Mg125   2.121       .  S
O112       Mg142   2.340       .  S
C113        O126   1.275       .  A
C113        O118   1.273       .  A
C113       C2305   1.484       .  S
C114        O141   1.270       .  A
C114       C2317   1.473       .  S
Mg115       O122   2.122       .  S
Mg115       O123   2.121       .  S
Mg115       O116   2.326       .  S
Mg115       O117   2.303       .  S
Mg115       O144   2.237       .  S
O117        C121   1.273       .  A
O118       Mg125   2.301       .  S
O119        C138   1.269       .  A
O120        C140   1.276       .  A
O120       Mg136   2.334       .  S
O122       Mg136   2.120       .  S
O122        C133   1.241       .  S
O123       Mg142   2.126       .  S
O124       Mg136   2.308       .  S
Mg125       O141   2.237       .  S
O126       Mg142   2.265       .  S
H127        C132   1.081       .  S
O128       Mg136   2.123       .  S
O128        C131   1.241       .  S
H129        C131   1.081       .  S
H130        C133   1.081       .  S
O135       Mg142   2.305       .  S
C138        O143   1.275       .  A
C138       C2281   1.477       .  S
O139        C140   1.271       .  A
C140       C2341   1.481       .  S
C145       C2257   1.469       .  S
C145        C146   1.401       .  A
C145        C150   1.387       .  A
C146        H151   1.082       .  S
C146        C147   1.419       .  A
C147        C163   1.497       .  S
C147        C148   1.420       .  A
C148        H152   1.082       .  S
C148        C149   1.403       .  A
C149       C2272   1.471       .  S
C149        C150   1.388       .  A
C150        H153   1.087       .  S
C154       C2236   1.480       .  S
C154        C155   1.408       .  A
C154        C159   1.391       .  A
C155        H160   1.082       .  S
C155        C156   1.421       .  A
C156        C167   1.499       .  S
C156        C157   1.419       .  A
C157        H161   1.083       .  S
C157        C158   1.400       .  A
C158       C2248   1.471       .  S
C158        C159   1.386       .  A
C159        H162   1.086       .  S
C163        C164   1.406       .  A
C163        C168   1.406       .  A
C164        H169   1.081       .  S
C164        C165   1.410       .  A
C165        C176   1.499       .  S
C165        C166   1.412       .  A
C166        H170   1.081       .  S
C166        C167   1.410       .  A
C167        C168   1.408       .  A
C168        H171   1.081       .  S
C172       C2221   1.471       .  S
C172        C173   1.386       .  A
C172        C177   1.402       .  A
C173        H178   1.087       .  S
C173        C174   1.388       .  A
C174       C2212   1.471       .  S
C174        C175   1.404       .  A
C175        H179   1.082       .  S
C175        C176   1.420       .  A
C176        C177   1.421       .  A
C177        H180   1.082       .  S
O181       Mg183   2.118       .  S
O181       Mg189   2.112       .  S
O181        C216   1.241       .  S
C182        O195   1.241       .  S
C182        O219   1.275       .  A
C182        H221   1.081       .  S
Mg183       O212   2.115       .  S
Mg183       O227   2.327       .  S
Mg183       O223   2.238       .  S
Mg183       O194   2.308   1_655  S
O184       Mg226   2.115       .  S
O184       Mg209   2.117   1_455  S
O184        C205   1.241       .  S
O185        C216   1.275       .  A
O185       Mg209   2.312       .  S
C186        O188   1.271       .  A
C186        O200   1.274       .  A
C186       C2149   1.476       .  S
O187        C215   1.275       .  A
O187       Mg189   2.311       .  S
O188       Mg220   2.238       .  S
Mg189       O195   2.121       .  S
Mg189       O203   2.237       .  S
Mg189       O191   2.323       .  S
C190        O228   1.271       .  A
C190        O196   1.275       .  A
C190       C2209   1.479       .  S
O191        C198   1.274       .  A
H192        C205   1.081       .  S
C193        O207   1.241       .  S
C193        O208   1.274       .  A
C193        H218   1.081       .  S
O194        C217   1.275       .  A
O195       Mg209   2.114       .  S
O196       Mg226   2.325       .  S
C197        O210   1.271   1_655  A
C197        O202   1.274       .  A
C197       C2185   1.478       .  S
C198        O225   1.270       .  A
C198       C2197   1.477       .  S
Mg199       O206   2.114       .  S
Mg199       O207   2.115       .  S
Mg199       O200   2.321       .  S
Mg199       O201   2.310       .  S
Mg199       O228   2.236       .  S
O201        C205   1.275       .  A
O202       Mg209   2.321       .  S
O203        C222   1.270       .  A
O204        C224   1.274       .  A
O204       Mg220   2.319       .  S
O206       Mg220   2.117       .  S
O206        C217   1.241       .  S
O207       Mg226   2.115       .  S
O208       Mg220   2.307       .  S
Mg209       O225   2.236       .  S
O210       Mg226   2.236       .  S
H211        C216   1.081       .  S
O212       Mg220   2.116   1_655  S
O212        C215   1.241       .  S
H213        C215   1.081       .  S
H214        C217   1.081       .  S
O219       Mg226   2.312   1_655  S
C222        O227   1.275       .  A
C222       C2173   1.480       .  S
O223        C224   1.271   1_655  A
C224       C2161   1.477       .  S
O229       Mg231   2.116       .  S
O229       Mg237   2.130       .  S
O229        C264   1.241       .  S
C230        O243   1.240   1_545  S
C230        O267   1.274       .  A
C230        H269   1.081       .  S
Mg231       O260   2.130       .  S
Mg231       O275   2.301       .  S
Mg231       O271   2.281       .  S
Mg231       O242   2.306       .  S
O232       Mg274   2.125       .  S
O232       Mg257   2.118   1_545  S
O232        C253   1.242   1_545  S
O233        C264   1.274       .  A
O233       Mg257   2.308       .  S
C234        O236   1.270       .  A
C234        O248   1.275       .  A
C234       C2245   1.475       .  S
O235        C263   1.274   1_565  A
O235       Mg237   2.304       .  S
O236       Mg268   2.263       .  S
Mg237       O243   2.120       .  S
Mg237       O251   2.273       .  S
Mg237       O239   2.302       .  S
C238        O276   1.271       .  A
C238        O244   1.275       .  A
C238       C2104   1.479       .  S
O239        C246   1.276       .  A
H240        C253   1.081       .  S
C241        O255   1.241       .  S
C241        O256   1.275       .  A
C241        H266   1.081       .  S
O242        C265   1.274       .  A
O243       Mg257   2.127       .  S
O244       Mg274   2.296       .  S
C245        O258   1.271       .  A
C245        O250   1.276       .  A
C245       C2089   1.475       .  S
C246        O273   1.271       .  A
C246       C2125   1.477       .  S
Mg247       O254   2.117       .  S
Mg247       O255   2.127       .  S
Mg247       O248   2.308       .  S
Mg247       O249   2.313       .  S
Mg247       O276   2.272       .  S
O249        C253   1.276   1_545  A
O250       Mg257   2.312   1_545  S
O251        C270   1.272       .  A
O252        C272   1.275   1_545  A
O252       Mg268   2.298       .  S
O254       Mg268   2.124       .  S
O254        C265   1.241   1_545  S
O255       Mg274   2.116       .  S
O256       Mg268   2.312       .  S
Mg257       O273   2.269       .  S
O258       Mg274   2.269       .  S
H259        C264   1.081       .  S
O260       Mg268   2.105   1_565  S
O260        C263   1.241   1_565  S
H261        C263   1.081       .  S
H262        C265   1.081       .  S
O267       Mg274   2.309       .  S
C270        O275   1.277       .  A
C270       C2116   1.483       .  S
O271        C272   1.273       .  A
C272       C2137   1.485       .  S
C277        C299   1.497       .  S
C277        C278   1.409       .  A
C277        C282   1.408       .  A
C278        H283   1.082       .  S
C278        C279   1.409       .  A
C279        C288   1.499       .  S
C279        C280   1.408       .  A
C280        H284   1.081       .  S
C280        C281   1.409       .  A
C281        C308   1.498       .  S
C281        C282   1.409       .  A
C282        H285   1.081       .  S
C286       C2077   1.472       .  S
C286        C287   1.403       .  A
C286        C291   1.387       .  A
C287        H292   1.082       .  S
C287        C288   1.421       .  A
C288        C289   1.420       .  A
C289        H293   1.082       .  S
C289        C290   1.403       .  A
C290       C2065   1.470       .  S
C290        C291   1.387       .  A
C291        H294   1.087       .  S
C295       C2128   1.472       .  S
C295        C296   1.389       .  A
C295        C300   1.402       .  A
C296        H301   1.086       .  S
C296        C297   1.389       .  A
C297       C2464   1.475       .  S
C297        C298   1.404       .  A
C298        H302   1.083       .  S
C298        C299   1.420       .  A
C299        C300   1.418       .  A
C300        H303   1.083       .  S
C304       C2176   1.471       .  S
C304        C305   1.388       .  A
C304        C309   1.403       .  A
C305        H310   1.087       .  S
C305        C306   1.387       .  A
C306       C2392   1.471       .  S
C306        C307   1.402       .  A
C307        H311   1.082       .  S
C307        C308   1.420       .  A
C308        C309   1.420       .  A
C309        H312   1.082       .  S
O313       Mg315   2.116   1_554  S
O313       Mg321   2.115       .  S
O313        C348   1.241       .  S
C314        O327   1.241       .  S
C314        O351   1.274       .  A
C314        H353   1.081       .  S
Mg315       O344   2.117       .  S
Mg315       O359   2.322       .  S
Mg315       O355   2.238       .  S
Mg315       O326   2.309       .  S
O316       Mg358   2.118       .  S
O316       Mg341   2.116       .  S
O316        C337   1.241       .  S
O317        C348   1.274       .  A
O317       Mg341   2.308       .  S
C318        O320   1.271       .  A
C318        O332   1.275       .  A
C318       C2080   1.478       .  S
O319        C347   1.275       .  A
O319       Mg321   2.310   1_556  S
O320       Mg352   2.238       .  S
Mg321       O327   2.119       .  S
Mg321       O335   2.238       .  S
Mg321       O323   2.324       .  S
C322        O360   1.271   1_554  A
C322        O328   1.275       .  A
C322       C2020   1.476       .  S
O323        C330   1.275       .  A
H324        C337   1.081       .  S
C325        O339   1.241       .  S
C325        O340   1.274       .  A
C325        H350   1.081       .  S
O326        C349   1.275       .  A
O327       Mg341   2.118       .  S
O328       Mg358   2.325       .  S
C329        O342   1.271       .  A
C329        O334   1.275       .  A
C329       C2029   1.475       .  S
C330        O357   1.271       .  A
C330       C2269   1.477       .  S
Mg331       O338   2.118       .  S
Mg331       O339   2.115       .  S
Mg331       O332   2.325       .  S
Mg331       O333   2.309   1_556  S
Mg331       O360   2.235       .  S
O333        C337   1.275       .  A
O334       Mg341   2.321       .  S
O335        C354   1.270   1_554  A
O336        C356   1.275       .  A
O336       Mg352   2.324       .  S
O338       Mg352   2.117       .  S
O338        C349   1.241       .  S
O339       Mg358   2.120   1_556  S
O340       Mg352   2.309       .  S
Mg341       O357   2.237       .  S
O342       Mg358   2.240       .  S
H343        C348   1.081       .  S
O344       Mg352   2.116       .  S
O344        C347   1.241       .  S
H345        C347   1.081       .  S
H346        C349   1.081       .  S
O351       Mg358   2.308       .  S
C354        O359   1.274       .  A
C354       C2041   1.475       .  S
O355        C356   1.271       .  A
C356       C2056   1.476       .  S
O361       Mg363   2.122       .  S
O361       Mg369   2.113       .  S
O361        C396   1.241       .  S
C362        O375   1.241       .  S
C362        O399   1.275       .  A
C362        H401   1.081       .  S
Mg363       O392   2.115       .  S
Mg363       O407   2.328       .  S
Mg363       O403   2.238       .  S
Mg363       O374   2.308       .  S
O364       Mg406   2.115       .  S
O364       Mg389   2.115       .  S
O364        C385   1.241       .  S
O365        C396   1.275       .  A
O365       Mg389   2.311       .  S
C366        O368   1.271       .  A
C366        O380   1.274       .  A
C366       C1957   1.473       .  S
O367        C395   1.275       .  A
O367       Mg369   2.311       .  S
O368       Mg400   2.238       .  S
Mg369       O375   2.117       .  S
Mg369       O383   2.231       .  S
Mg369       O371   2.314       .  S
C370        O408   1.270       .  A
C370        O376   1.274       .  A
C370       C2005   1.475       .  S
O371        C378   1.273       .  A
H372        C385   1.081       .  S
C373        O387   1.241       .  S
C373        O388   1.274       .  A
C373        H398   1.081       .  S
O374        C397   1.274       .  A
O375       Mg389   2.118       .  S
O376       Mg406   2.320       .  S
C377        O390   1.271       .  A
C377        O382   1.275       .  A
C377       C1972   1.479       .  S
C378        O405   1.271       .  A
C378       C1993   1.476       .  S
Mg379       O386   2.118       .  S
Mg379       O387   2.118       .  S
Mg379       O380   2.316       .  S
Mg379       O381   2.307       .  S
Mg379       O408   2.235       .  S
O381        C385   1.274       .  A
O382       Mg389   2.327       .  S
O383        C402   1.269       .  A
O384        C404   1.275       .  A
O384       Mg400   2.326       .  S
O386       Mg400   2.119       .  S
O386        C397   1.241       .  S
O387       Mg406   2.119       .  S
O388       Mg400   2.308       .  S
Mg389       O405   2.239       .  S
O390       Mg406   2.240       .  S
H391        C396   1.081       .  S
O392       Mg400   2.117       .  S
O392        C395   1.241       .  S
H393        C395   1.081       .  S
H394        C397   1.081       .  S
O399       Mg406   2.309       .  S
C402        O407   1.275       .  A
C402       C1945   1.477       .  S
O403        C404   1.271       .  A
C404       C1981   1.478       .  S
O409       Mg411   2.119   1_655  S
O409       Mg417   2.116       .  S
O409        C444   1.240       .  S
C410        O423   1.241       .  S
C410        O447   1.274       .  A
C410        H449   1.081       .  S
Mg411       O440   2.116       .  S
Mg411       O455   2.329       .  S
Mg411       O451   2.241       .  S
Mg411       O422   2.311   1_554  S
O412       Mg454   2.118       .  S
O412       Mg437   2.117   1_556  S
O412        C433   1.241       .  S
O413        C444   1.274       .  A
O413       Mg437   2.304   1_565  S
C414        O416   1.270   1_545  A
C414        O428   1.275       .  A
C414       C1873   1.479       .  S
O415        C443   1.274       .  A
O415       Mg417   2.308   1_455  S
O416       Mg448   2.230       .  S
Mg417       O423   2.117   1_565  S
Mg417       O431   2.233       .  S
Mg417       O419   2.317       .  S
C418        O456   1.270   1_655  A
C418        O424   1.275       .  A
C418       C1921   1.477       .  S
O419        C426   1.274       .  A
H420        C433   1.081       .  S
C421        O435   1.240       .  S
C421        O436   1.274       .  A
C421        H446   1.081       .  S
O422        C445   1.275       .  A
O423       Mg437   2.124       .  S
O424       Mg454   2.326       .  S
C425        O438   1.271   1_554  A
C425        O430   1.275       .  A
C425       C1897   1.473       .  S
C426        O453   1.272   1_565  A
C426       C1909   1.474       .  S
Mg427       O434   2.122   1_545  S
Mg427       O435   2.114       .  S
Mg427       O428   2.328       .  S
Mg427       O429   2.310   1_455  S
Mg427       O456   2.238       .  S
O429        C433   1.275       .  A
O430       Mg437   2.322       .  S
O431        C450   1.271   1_655  A
O432        C452   1.274       .  A
O432       Mg448   2.320       .  S
O434       Mg448   2.116       .  S
O434        C445   1.241       .  S
O435       Mg454   2.122   1_455  S
O436       Mg448   2.311   1_545  S
Mg437       O453   2.239       .  S
O438       Mg454   2.239       .  S
H439        C444   1.081       .  S
O440       Mg448   2.114   1_554  S
O440        C443   1.241       .  S
H441        C443   1.081       .  S
H442        C445   1.081       .  S
O447       Mg454   2.306   1_554  S
C450        O455   1.275       .  A
C450       C1885   1.480       .  S
O451        C452   1.271   1_554  A
C452       C1933   1.476       .  S
C457       C2488   1.473   1_545  S
C457        C458   1.403       .  A
C457        C462   1.388       .  A
C458        H463   1.083       .  S
C458        C459   1.420       .  A
C459        C468   1.499       .  S
C459        C460   1.420       .  A
C460        H464   1.082       .  S
C460        C461   1.404       .  A
C461       C1864   1.473       .  S
C461        C462   1.390       .  A
C462        H465   1.087   1_545  S
C466        C479   1.500       .  S
C466        C467   1.409       .  A
C466        C471   1.409       .  A
C467        H472   1.081       .  S
C467        C468   1.409       .  A
C468        C469   1.409       .  A
C469        H473   1.081       .  S
C469        C470   1.410       .  A
C470        C488   1.498       .  S
C470        C471   1.409       .  A
C471        H474   1.081       .  S
C475       C1840   1.472       .  S
C475        C476   1.387       .  A
C475        C480   1.403       .  A
C476        H481   1.087       .  S
C476        C477   1.388       .  A
C477       C1849   1.471       .  S
C477        C478   1.402       .  A
C478        H482   1.082       .  S
C478        C479   1.421       .  A
C479        C480   1.421       .  A
C480        H483   1.082       .  S
C484       C2377   1.470       .  S
C484        C485   1.388       .  A
C484        C489   1.403       .  A
C485        H490   1.087       .  S
C485        C486   1.387       .  A
C486       C1984   1.471       .  S
C486        C487   1.403       .  A
C487        H491   1.082       .  S
C487        C488   1.420       .  A
C488        C489   1.420       .  A
C489        H492   1.082       .  S
C493       C1813   1.474   1_565  S
C493        C494   1.404       .  A
C493        C498   1.388       .  A
C494        H499   1.083       .  S
C494        C495   1.419       .  A
C495        C504   1.498       .  S
C495        C496   1.418       .  A
C496        H500   1.083       .  S
C496        C497   1.405       .  A
C497       C1825   1.472       .  S
C497        C498   1.390       .  A
C498        H501   1.086   1_565  S
C502        C513   1.497       .  S
C502        C503   1.408       .  A
C502        C507   1.409       .  A
C503        H508   1.083       .  S
C503        C504   1.409       .  A
C504        C505   1.410       .  A
C505        H509   1.082       .  S
C505        C506   1.410       .  A
C506        C522   1.498       .  S
C506        C507   1.410       .  A
C507        H510   1.082       .  S
C511       C1801   1.491       .  S
C511        C512   1.410       .  A
C511        C516   1.394       .  A
C512        H517   1.083       .  S
C512        C513   1.421       .  A
C513        C514   1.418       .  A
C514        H518   1.082       .  S
C514        C515   1.403       .  A
C515       C2308   1.474       .  S
C515        C516   1.388       .  A
C516        H519   1.086       .  S
C520       C1789   1.474       .  S
C520        C521   1.405       .  A
C520        C525   1.388       .  A
C521        H526   1.083       .  S
C521        C522   1.421       .  A
C522        C523   1.419       .  A
C523        H527   1.083       .  S
C523        C524   1.403       .  A
C524       C1969   1.472       .  S
C524        C525   1.388       .  A
C525        H528   1.087       .  S
O529       Mg531   2.116   1_554  S
O529       Mg537   2.114       .  S
O529        C564   1.241       .  S
C530        O543   1.241       .  S
C530        O567   1.275       .  A
C530        H569   1.081       .  S
Mg531       O560   2.121       .  S
Mg531       O575   2.323       .  S
Mg531       O571   2.237       .  S
Mg531       O542   2.308   1_545  S
O532       Mg574   2.117       .  S
O532       Mg557   2.113   1_565  S
O532        C553   1.240       .  S
O533        C564   1.274       .  A
O533       Mg557   2.311       .  S
C534        O536   1.270       .  A
C534        O548   1.273       .  A
C534       C1804   1.467       .  S
O535        C563   1.275       .  A
O535       Mg537   2.311   1_556  S
O536       Mg568   2.246       .  S
Mg537       O543   2.123       .  S
Mg537       O551   2.241       .  S
Mg537       O539   2.330       .  S
C538        O576   1.269   1_554  A
C538        O544   1.275       .  A
C538       C1777   1.478       .  S
O539        C546   1.275       .  A
H540        C553   1.081       .  S
C541        O555   1.241       .  S
C541        O556   1.275       .  A
C541        H566   1.081       .  S
O542        C565   1.274       .  A
O543       Mg557   2.115       .  S
O544       Mg574   2.329       .  S
C545        O558   1.271   1_545  A
C545        O550   1.275       .  A
C545       C1753   1.477       .  S
C546        O573   1.270       .  A
C546       C1852   1.480       .  S
Mg547       O554   2.118       .  S
Mg547       O555   2.110       .  S
Mg547       O548   2.319       .  S
Mg547       O549   2.309   1_556  S
Mg547       O576   2.236       .  S
O549        C553   1.274       .  A
O550       Mg557   2.320       .  S
O551        C570   1.271   1_554  A
O552        C572   1.275       .  A
O552       Mg568   2.321       .  S
O554       Mg568   2.117       .  S
O554        C565   1.240       .  S
O555       Mg574   2.122   1_556  S
O556       Mg568   2.311       .  S
Mg557       O573   2.235       .  S
O558       Mg574   2.237       .  S
H559        C564   1.081       .  S
O560       Mg568   2.122   1_545  S
O560        C563   1.242       .  S
H561        C563   1.081       .  S
H562        C565   1.081       .  S
O567       Mg574   2.309   1_545  S
C570        O575   1.275       .  A
C570       C1765   1.477       .  S
O571        C572   1.271   1_545  A
C572       C1741   1.476       .  S
C577       C1729   1.468   1_556  S
C577        C578   1.388       .  A
C577        C582   1.401       .  A
C578        H583   1.087   1_556  S
C578        C579   1.388       .  A
C579       C1768   1.472       .  S
C579        C580   1.404       .  A
C580        H584   1.083       .  S
C580        C581   1.420       .  A
C581        C586   1.493       .  S
C581        C582   1.417       .  A
C582        H585   1.083       .  S
C586        C587   1.406       .  A
C586        C591   1.408       .  A
C587        H592   1.082       .  S
C587        C588   1.408       .  A
C588        C599   1.496       .  S
C588        C589   1.411       .  A
C589        H593   1.082       .  S
C589        C590   1.409       .  A
C590        C606   1.496       .  S
C590        C591   1.408       .  A
C591        H594   1.083       .  S
C595       C1717   1.475       .  S
C595        C596   1.389       .  A
C595        C600   1.404       .  A
C596        H601   1.087       .  S
C596        C597   1.390       .  A
C597       C1948   1.469       .  S
C597        C598   1.401       .  A
C598        H602   1.083       .  S
C598        C599   1.417       .  A
C599        C600   1.420       .  A
C600        H603   1.083       .  S
C604       C2296   1.474       .  S
C604        C605   1.406       .  A
C604        C609   1.389       .  A
C605        H610   1.083       .  S
C605        C606   1.419       .  A
C606        C607   1.418       .  A
C607        H611   1.083       .  S
C607        C608   1.402       .  A
C608       C1705   1.471       .  S
C608        C609   1.389       .  A
C609        H612   1.087       .  S
C613       C1780   1.471       .  S
C613        C614   1.403       .  A
C613        C618   1.388       .  A
C614        H619   1.083       .  S
C614        C615   1.420       .  A
C615        C633   1.495       .  S
C615        C616   1.418       .  A
C616        H620   1.083       .  S
C616        C617   1.401       .  A
C617       C1696   1.469   1_554  S
C617        C618   1.388       .  A
C618        H621   1.087   1_554  S
C622       C2452   1.475       .  S
C622        C623   1.389       .  A
C622        C627   1.404       .  A
C623        H628   1.086       .  S
C623        C624   1.389       .  A
C624       C2008   1.469       .  S
C624        C625   1.401       .  A
C625        H629   1.082       .  S
C625        C626   1.417       .  A
C626        C635   1.496       .  S
C626        C627   1.420       .  A
C627        H630   1.083       .  S
C631        C642   1.497       .  S
C631        C632   1.408       .  A
C631        C636   1.408       .  A
C632        H637   1.082       .  S
C632        C633   1.408       .  A
C633        C634   1.407       .  A
C634        H638   1.082       .  S
C634        C635   1.408       .  A
C635        C636   1.409       .  A
C636        H639   1.082       .  S
C640       C1669   1.472       .  S
C640        C641   1.404       .  A
C640        C645   1.388       .  A
C641        H646   1.083       .  S
C641        C642   1.419       .  A
C642        C643   1.419       .  A
C643        H647   1.082       .  S
C643        C644   1.402       .  A
C644       C1681   1.470       .  S
C644        C645   1.388       .  A
C645        H648   1.087       .  S
O649       Mg651   2.126   1_455  S
O649       Mg657   2.111       .  S
O649        C684   1.241       .  S
C650        O663   1.240       .  S
C650        O687   1.274       .  A
C650        H689   1.081       .  S
Mg651       O680   2.115       .  S
Mg651       O695   2.332       .  S
Mg651       O691   2.240       .  S
Mg651       O662   2.309   1_554  S
O652       Mg694   2.119       .  S
O652       Mg677   2.117   1_556  S
O652        C673   1.241       .  S
O653        C684   1.275       .  A
O653       Mg677   2.314       .  S
C654        O656   1.271       .  A
C654        O668   1.275       .  A
C654       C1708   1.475       .  S
O655        C683   1.275       .  A
O655       Mg657   2.315   1_655  S
O656       Mg688   2.239       .  S
Mg657       O663   2.116       .  S
Mg657       O671   2.233       .  S
Mg657       O659   2.321       .  S
C658        O696   1.271   1_455  A
C658        O664   1.273       .  A
C658       C1645   1.467       .  S
O659        C666   1.274       .  A
H660        C673   1.081       .  S
C661        O675   1.240       .  S
C661        O676   1.273       .  A
C661        H686   1.081       .  S
O662        C685   1.275       .  A
O663       Mg677   2.116       .  S
O664       Mg694   2.310       .  S
C665        O678   1.270   1_554  A
C665        O670   1.275       .  A
C665       C1657   1.476       .  S
C666        O693   1.270       .  A
C666       C1684   1.477       .  S
Mg667       O674   2.121       .  S
Mg667       O675   2.125       .  S
Mg667       O668   2.325       .  S
Mg667       O669   2.303   1_655  S
Mg667       O696   2.247       .  S
O669        C673   1.274       .  A
O670       Mg677   2.326       .  S
O671        C690   1.269   1_455  A
O672        C692   1.275       .  A
O672       Mg688   2.324       .  S
O674       Mg688   2.120       .  S
O674        C685   1.241       .  S
O675       Mg694   2.112   1_655  S
O676       Mg688   2.303       .  S
Mg677       O693   2.239       .  S
O678       Mg694   2.236       .  S
H679        C684   1.081       .  S
O680       Mg688   2.121   1_554  S
O680        C683   1.241       .  S
H681        C683   1.081       .  S
H682        C685   1.081       .  S
O687       Mg694   2.308   1_554  S
C690        O695   1.275       .  A
C690       C1633   1.480       .  S
O691        C692   1.271   1_554  A
C692       C1621   1.475       .  S
C697        C708   1.498       .  S
C697        C698   1.408       .  A
C697        C702   1.412       .  A
C698        H703   1.082       .  S
C698        C699   1.408       .  A
C699        C726   1.495       .  S
C699        C700   1.407       .  A
C700        H704   1.082       .  S
C700        C701   1.407       .  A
C701        C719   1.496       .  S
C701        C702   1.410       .  A
C702        H705   1.082       .  S
C706       C1924   1.471       .  S
C706        C707   1.403       .  A
C706        C711   1.390       .  A
C707        H712   1.083       .  S
C707        C708   1.418       .  A
C708        C709   1.421       .  A
C709        H713   1.083       .  S
C709        C710   1.405       .  A
C710       C1612   1.475   1_655  S
C710        C711   1.388       .  A
C711        H714   1.087   1_655  S
C715       C2320   1.471   1_545  S
C715        C716   1.390       .  A
C715        C720   1.404       .  A
C716        H721   1.087   1_545  S
C716        C717   1.389       .  A
C717       C2092   1.474       .  S
C717        C718   1.404       .  A
C718        H722   1.083       .  S
C718        C719   1.420       .  A
C719        C720   1.417       .  A
C720        H723   1.083       .  S
C724       C1597   1.470       .  S
C724        C725   1.402       .  A
C724        C729   1.387       .  A
C725        H730   1.083       .  S
C725        C726   1.419       .  A
C726        C727   1.419       .  A
C727        H731   1.083       .  S
C727        C728   1.402       .  A
C728       C2200   1.470       .  S
C728        C729   1.389       .  A
C729        H732   1.087       .  S
C733       C1585   1.470   1_455  S
C733        C734   1.403       .  A
C733        C738   1.389       .  A
C734        H739   1.083       .  S
C734        C735   1.418       .  A
C735        C753   1.495       .  S
C735        C736   1.419       .  A
C736        H740   1.083       .  S
C736        C737   1.404       .  A
C737       C1576   1.474       .  S
C737        C738   1.389       .  A
C738        H741   1.087   1_455  S
C742       C1561   1.478   1_554  S
C742        C743   1.391       .  A
C742        C747   1.405       .  A
C743        H748   1.086   1_554  S
C743        C744   1.389       .  A
C744       C1660   1.471       .  S
C744        C745   1.402       .  A
C745        H749   1.083       .  S
C745        C746   1.418       .  A
C746        C755   1.497       .  S
C746        C747   1.420       .  A
C747        H750   1.083       .  S
C751        C764   1.498       .  S
C751        C752   1.409       .  A
C751        C756   1.409       .  A
C752        H757   1.082       .  S
C752        C753   1.408       .  A
C753        C754   1.409       .  A
C754        H758   1.082       .  S
C754        C755   1.409       .  A
C755        C756   1.408       .  A
C756        H759   1.081       .  S
C760       C1549   1.471   1_545  S
C760        C761   1.388       .  A
C760        C765   1.403       .  A
C761        H766   1.087   1_545  S
C761        C762   1.387       .  A
C762       C1756   1.470       .  S
C762        C763   1.401       .  A
C763        H767   1.082       .  S
C763        C764   1.420       .  A
C764        C765   1.420       .  A
C765        H768   1.082       .  S
O769       Mg771   2.121       .  S
O769       Mg777   2.123       .  S
O769        C804   1.240       .  S
C770        O783   1.241       .  S
C770        O807   1.275       .  A
C770        H809   1.081       .  S
Mg771       O800   2.128       .  S
Mg771       O815   2.318       .  S
Mg771       O811   2.277       .  S
Mg771       O782   2.309       .  S
O772       Mg814   2.132       .  S
O772       Mg797   2.113       .  S
O772        C793   1.241       .  S
O773        C804   1.274       .  A
O773       Mg797   2.310       .  S
C774        O776   1.272       .  A
C774        O788   1.275       .  A
C774       C1537   1.483       .  S
O775        C803   1.275       .  A
O775       Mg777   2.311       .  S
O776       Mg808   2.278       .  S
Mg777       O783   2.125       .  S
Mg777       O791   2.276       .  S
Mg777       O779   2.320       .  S
C778        O816   1.272       .  A
C778        O784   1.276       .  A
C778       C1720   1.480       .  S
O779        C786   1.276       .  A
H780        C793   1.081       .  S
C781        O795   1.241       .  S
C781        O796   1.274       .  A
C781        H806   1.081       .  S
O782        C805   1.275       .  A
O783       Mg797   2.128       .  S
O784       Mg814   2.306       .  S
C785        O798   1.271       .  A
C785        O790   1.276       .  A
C785       C2233   1.487       .  S
C786        O813   1.270       .  A
C786       C1816   1.471       .  S
Mg787       O794   2.117       .  S
Mg787       O795   2.129       .  S
Mg787       O788   2.298       .  S
Mg787       O789   2.306       .  S
Mg787       O816   2.277       .  S
O789        C793   1.274       .  A
O790       Mg797   2.297       .  S
O791        C810   1.272       .  A
O792        C812   1.275       .  A
O792       Mg808   2.299       .  S
O794       Mg808   2.133       .  S
O794        C805   1.241       .  S
O795       Mg814   2.111       .  S
O796       Mg808   2.304       .  S
Mg797       O813   2.265       .  S
O798       Mg814   2.270       .  S
H799        C804   1.081       .  S
O800       Mg808   2.121       .  S
O800        C803   1.241       .  S
H801        C803   1.081       .  S
H802        C805   1.081       .  S
O807       Mg814   2.311       .  S
C810        O815   1.277       .  A
C810       C1609   1.477       .  S
O811        C812   1.272       .  A
C812       C1564   1.483       .  S
O817       Mg819   2.114       .  S
O817       Mg825   2.123       .  S
O817        C852   1.241       .  S
C818        O831   1.241       .  S
C818        O855   1.274       .  A
C818        H857   1.081       .  S
Mg819       O848   2.119       .  S
Mg819       O863   2.314       .  S
Mg819       O859   2.234       .  S
Mg819       O830   2.308       .  S
O820       Mg862   2.121       .  S
O820       Mg845   2.118       .  S
O820        C841   1.241       .  S
O821        C852   1.274       .  A
O821       Mg845   2.302       .  S
C822        O824   1.270       .  A
C822        O836   1.274       .  A
C822       C1525   1.473       .  S
O823        C851   1.274       .  A
O823       Mg825   2.305       .  S
O824       Mg856   2.234       .  S
Mg825       O831   2.114       .  S
Mg825       O839   2.237       .  S
Mg825       O827   2.316       .  S
C826        O864   1.271       .  A
C826        O832   1.276       .  A
C826       C1600   1.475       .  S
O827        C834   1.274       .  A
H828        C841   1.081       .  S
C829        O843   1.241       .  S
C829        O844   1.275       .  A
C829        H854   1.081       .  S
O830        C853   1.274       .  A
O831       Mg845   2.123       .  S
O832       Mg862   2.327       .  S
C833        O846   1.272       .  A
C833        O838   1.275       .  A
C833       C1588   1.475       .  S
C834        O861   1.271       .  A
C834       C1513   1.470       .  S
Mg835       O842   2.118       .  S
Mg835       O843   2.118       .  S
Mg835       O836   2.324       .  S
Mg835       O837   2.307       .  S
Mg835       O864   2.234       .  S
O837        C841   1.274       .  A
O838       Mg845   2.318       .  S
O839        C858   1.271       .  A
O840        C860   1.274       .  A
O840       Mg856   2.322       .  S
O842       Mg856   2.117       .  S
O842        C853   1.241       .  S
O843       Mg862   2.120       .  S
O844       Mg856   2.310       .  S
Mg845       O861   2.240       .  S
O846       Mg862   2.243       .  S
H847        C852   1.081       .  S
O848       Mg856   2.115       .  S
O848        C851   1.241       .  S
H849        C851   1.081       .  S
H850        C853   1.081       .  S
O855       Mg862   2.304       .  S
C858        O863   1.274       .  A
C858       C1732   1.470       .  S
O859        C860   1.270       .  A
C860       C2260   1.476       .  S
C865       C1501   1.472   1_556  S
C865        C866   1.403       .  A
C865        C870   1.388       .  A
C866        H871   1.083       .  S
C866        C867   1.418       .  A
C867        C874   1.495       .  S
C867        C868   1.419       .  A
C868        H872   1.083       .  S
C868        C869   1.404       .  A
C869       C1936   1.471       .  S
C869        C870   1.388       .  A
C870        H873   1.087   1_556  S
C874        C875   1.407       .  A
C874        C879   1.408       .  A
C875        H880   1.082       .  S
C875        C876   1.409       .  A
C876        C887   1.498       .  S
C876        C877   1.410       .  A
C877        H881   1.081       .  S
C877        C878   1.409       .  A
C878        C896   1.499       .  S
C878        C879   1.409       .  A
C879        H882   1.082       .  S
C883       C2164   1.470       .  S
C883        C884   1.387       .  A
C883        C888   1.401       .  A
C884        H889   1.087   1_455  S
C884        C885   1.387       .  A
C885       C2344   1.472   1_455  S
C885        C886   1.403       .  A
C886        H890   1.082       .  S
C886        C887   1.421       .  A
C887        C888   1.420       .  A
C888        H891   1.082       .  S
C892       C1540   1.478       .  S
C892        C893   1.390       .  A
C892        C897   1.406       .  A
C893        H898   1.087       .  S
C893        C894   1.388       .  A
C894       C2053   1.471       .  S
C894        C895   1.401       .  A
C895        H899   1.082       .  S
C895        C896   1.419       .  A
C896        C897   1.422       .  A
C897        H900   1.082       .  S
O901       Mg903   2.119       .  S
O901       Mg909   2.122       .  S
O901        C936   1.241       .  S
C902        O915   1.241       .  S
C902        O939   1.274       .  A
C902        H941   1.081       .  S
Mg903       O932   2.115       .  S
Mg903       O947   2.322       .  S
Mg903       O943   2.239       .  S
Mg903       O914   2.311       .  S
O904       Mg946   2.114       .  S
O904       Mg929   2.121       .  S
O904        C925   1.241       .  S
O905        C936   1.274       .  A
O905       Mg929   2.305       .  S
C906        O908   1.271       .  A
C906        O920   1.276       .  A
C906       C1792   1.481       .  S
O907        C935   1.274       .  A
O907       Mg909   2.305       .  S
O908       Mg940   2.238       .  S
Mg909       O915   2.109       .  S
Mg909       O923   2.230       .  S
Mg909       O911   2.311       .  S
C910        O948   1.271       .  A
C910        O916   1.274       .  A
C910       C1492   1.478       .  S
O911        C918   1.274       .  A
H912        C925   1.081       .  S
C913        O927   1.241       .  S
C913        O928   1.275       .  A
C913        H938   1.081       .  S
O914        C937   1.275       .  A
O915       Mg929   2.122       .  S
O916       Mg946   2.317       .  S
C917        O930   1.270       .  A
C917        O922   1.275       .  A
C917       C1552   1.479       .  S
C918        O945   1.271       .  A
C918       C1504   1.469       .  S
Mg919       O926   2.117       .  S
Mg919       O927   2.117       .  S
Mg919       O920   2.336       .  S
Mg919       O921   2.312       .  S
Mg919       O948   2.240       .  S
O921        C925   1.275       .  A
O922       Mg929   2.327       .  S
O923        C942   1.270       .  A
O924        C944   1.275       .  A
O924       Mg940   2.327       .  S
O926       Mg940   2.112       .  S
O926        C937   1.241       .  S
O927       Mg946   2.122       .  S
O928       Mg940   2.313       .  S
Mg929       O945   2.244       .  S
O930       Mg946   2.238       .  S
H931        C936   1.081       .  S
O932       Mg940   2.115       .  S
O932        C935   1.240       .  S
H933        C935   1.081       .  S
H934        C937   1.081       .  S
O939       Mg946   2.307       .  S
C942        O947   1.275       .  A
C942       C1477   1.475       .  S
O943        C944   1.270       .  A
C944       C2224   1.479       .  S
C949       C1516   1.471   1_565  S
C949        C950   1.389       .  A
C949        C954   1.403       .  A
C950        H955   1.087   1_565  S
C950        C951   1.388       .  A
C951       C1912   1.469       .  S
C951        C952   1.401       .  A
C952        H956   1.083       .  S
C952        C953   1.418       .  A
C953        C960   1.493       .  S
C953        C954   1.418       .  A
C954        H957   1.083       .  S
C958        C980   1.501       .  S
C958        C959   1.410       .  A
C958        C963   1.411       .  A
C959        H964   1.082       .  S
C959        C960   1.408       .  A
C960        C961   1.407       .  A
C961        H965   1.082       .  S
C961        C962   1.406       .  A
C962        C971   1.497       .  S
C962        C963   1.409       .  A
C963        H966   1.081       .  S
C967       C2329   1.473   1_554  S
C967        C968   1.388       .  A
C967        C972   1.403       .  A
C968        H973   1.087   1_554  S
C968        C969   1.389       .  A
C969       C2017   1.470       .  S
C969        C970   1.402       .  A
C970        H974   1.083       .  S
C970        C971   1.418       .  A
C971        C972   1.420       .  A
C972        H975   1.083       .  S
C976       C1489   1.471       .  S
C976        C977   1.387       .  A
C976        C981   1.401       .  A
C977        H982   1.087       .  S
C977        C978   1.388       .  A
C978       C2113   1.477       .  S
C978        C979   1.405       .  A
C979        H983   1.082       .  S
C979        C980   1.422       .  A
C980        C981   1.420       .  A
C981        H984   1.082       .  S
C985       C1005   1.495       .  S
C985        C986   1.406       .  A
C985        C990   1.407       .  A
C986        H991   1.082       .  S
C986        C987   1.407       .  A
C987       C1016   1.492       .  S
C987        C988   1.408       .  A
C988        H992   1.082       .  S
C988        C989   1.408       .  A
C989        C998   1.496       .  S
C989        C990   1.408       .  A
C990        H993   1.081       .  S
C994       C1636   1.471       .  S
C994        C995   1.389       .  A
C994        C999   1.403       .  A
C995       H1000   1.087   1_655  S
C995        C996   1.387       .  A
C996       C1480   1.468   1_655  S
C996        C997   1.399       .  A
C997       H1001   1.082       .  S
C997        C998   1.419       .  A
C998        C999   1.420       .  A
C999       H1002   1.082       .  S
C1003      C2284   1.470       .  S
C1003      C1004   1.402       .  A
C1003      C1008   1.389       .  A
C1004      H1009   1.082       .  S
C1004      C1005   1.419       .  A
C1005      C1006   1.418       .  A
C1006      H1010   1.082       .  S
C1006      C1007   1.400       .  A
C1007      C1465   1.468       .  S
C1007      C1008   1.388       .  A
C1008      H1011   1.087       .  S
C1012      C1528   1.469       .  S
C1012      C1013   1.388       .  A
C1012      C1017   1.402       .  A
C1013      H1018   1.087       .  S
C1013      C1014   1.388       .  A
C1014      C1960   1.469       .  S
C1014      C1015   1.401       .  A
C1015      H1019   1.083       .  S
C1015      C1016   1.418       .  A
C1016      C1017   1.418       .  A
C1017      H1020   1.083       .  S
C1021      C1888   1.471       .  S
C1021      C1022   1.389       .  A
C1021      C1026   1.403       .  A
C1022      H1027   1.087   1_455  S
C1022      C1023   1.388       .  A
C1023      C2476   1.475   1_455  S
C1023      C1024   1.403       .  A
C1024      H1028   1.082       .  S
C1024      C1025   1.421       .  A
C1025      C1030   1.499       .  S
C1025      C1026   1.419       .  A
C1026      H1029   1.082       .  S
C1030      C1031   1.411       .  A
C1030      C1035   1.407       .  A
C1031      H1036   1.081       .  S
C1031      C1032   1.412       .  A
C1032      C1041   1.501       .  S
C1032      C1033   1.410       .  A
C1033      H1037   1.081       .  S
C1033      C1034   1.409       .  A
C1034      C1050   1.497       .  S
C1034      C1035   1.406       .  A
C1035      H1038   1.081       .  S
C1039      C2140   1.479       .  S
C1039      C1040   1.406       .  A
C1039      C1044   1.390       .  A
C1040      H1045   1.082       .  S
C1040      C1041   1.422       .  A
C1041      C1042   1.420       .  A
C1042      H1046   1.082       .  S
C1042      C1043   1.403       .  A
C1043      C1453   1.472   1_565  S
C1043      C1044   1.388       .  A
C1044      H1047   1.087   1_565  S
C1048      C1441   1.469       .  S
C1048      C1049   1.402       .  A
C1048      C1053   1.387       .  A
C1049      H1054   1.082       .  S
C1049      C1050   1.419       .  A
C1050      C1051   1.421       .  A
C1051      H1055   1.082       .  S
C1051      C1052   1.401       .  A
C1052      C2152   1.470       .  S
C1052      C1053   1.386       .  A
C1053      H1056   1.087       .  S
C1057      C1429   1.470   1_545  S
C1057      C1058   1.388       .  A
C1057      C1062   1.401       .  A
C1058      H1063   1.087   1_545  S
C1058      C1059   1.388       .  A
C1059      C1876   1.471       .  S
C1059      C1060   1.402       .  A
C1060      H1064   1.082       .  S
C1060      C1061   1.420       .  A
C1061      C1068   1.497       .  S
C1061      C1062   1.419       .  A
C1062      H1065   1.082       .  S
C1066      C1088   1.497       .  S
C1066      C1067   1.408       .  A
C1066      C1071   1.409       .  A
C1067      H1072   1.081       .  S
C1067      C1068   1.408       .  A
C1068      C1069   1.408       .  A
C1069      H1073   1.081       .  S
C1069      C1070   1.408       .  A
C1070      C1077   1.496       .  S
C1070      C1071   1.409       .  A
C1071      H1074   1.082       .  S
C1075      C2044   1.470       .  S
C1075      C1076   1.402       .  A
C1075      C1080   1.388       .  A
C1076      H1081   1.083       .  S
C1076      C1077   1.419       .  A
C1077      C1078   1.420       .  A
C1078      H1082   1.082       .  S
C1078      C1079   1.402       .  A
C1079      C1420   1.471   1_556  S
C1079      C1080   1.388       .  A
C1080      H1083   1.087   1_556  S
C1084      C2365   1.470       .  S
C1084      C1085   1.389       .  A
C1084      C1089   1.402       .  A
C1085      H1090   1.086       .  S
C1085      C1086   1.389       .  A
C1086      C2101   1.475       .  S
C1086      C1087   1.403       .  A
C1087      H1091   1.082       .  S
C1087      C1088   1.420       .  A
C1088      C1089   1.419       .  A
C1089      H1092   1.082       .  S
O1093     Mg1095   2.120       .  S
O1093     Mg1101   2.122       .  S
O1093      C1128   1.241       .  S
C1094      O1107   1.241       .  S
C1094      O1131   1.274       .  A
C1094      H1133   1.081       .  S
Mg1095     O1124   2.112       .  S
Mg1095     O1139   2.320       .  S
Mg1095     O1135   2.236       .  S
Mg1095     O1106   2.312   1_565  S
O1096     Mg1138   2.122       .  S
O1096     Mg1121   2.114   1_545  S
O1096      C1117   1.240       .  S
O1097      C1128   1.274       .  A
O1097     Mg1121   2.305   1_655  S
C1098      O1100   1.271   1_455  A
C1098      O1112   1.275       .  A
C1098      C1573   1.471       .  S
O1099      C1127   1.274       .  A
O1099     Mg1101   2.311       .  S
O1100     Mg1132   2.243       .  S
Mg1101     O1107   2.112   1_655  S
Mg1101     O1115   2.232       .  S
Mg1101     O1103   2.318       .  S
C1102      O1140   1.271       .  A
C1102      O1108   1.275       .  A
C1102      C1405   1.473       .  S
O1103      C1110   1.274       .  A
H1104      C1117   1.081       .  S
C1105      O1119   1.241       .  S
C1105      O1120   1.275       .  A
C1105      H1130   1.081       .  S
O1106      C1129   1.275       .  A
O1107     Mg1121   2.123       .  S
O1108     Mg1138   2.323       .  S
C1109      O1122   1.273   1_565  A
C1109      O1114   1.275       .  A
C1109      C1828   1.476       .  S
C1110      O1137   1.271   1_655  A
C1110      C1393   1.471       .  S
Mg1111     O1118   2.118   1_455  S
Mg1111     O1119   2.123       .  S
Mg1111     O1112   2.324       .  S
Mg1111     O1113   2.303       .  S
Mg1111     O1140   2.236       .  S
O1113      C1117   1.273       .  A
O1114     Mg1121   2.318       .  S
O1115      C1134   1.270       .  A
O1116      C1136   1.276       .  A
O1116     Mg1132   2.336       .  S
O1118     Mg1132   2.118       .  S
O1118      C1129   1.241       .  S
O1119     Mg1138   2.125       .  S
O1120     Mg1132   2.308   1_455  S
Mg1121     O1137   2.239       .  S
O1122     Mg1138   2.248       .  S
H1123      C1128   1.081       .  S
O1124     Mg1132   2.123   1_565  S
O1124      C1127   1.241       .  S
H1125      C1127   1.081       .  S
H1126      C1129   1.081       .  S
O1131     Mg1138   2.301   1_565  S
C1134      O1139   1.274       .  A
C1134      C1468   1.473       .  S
O1135      C1136   1.270   1_565  A
C1136      C1861   1.481       .  S
C1141      C1648   1.474       .  S
C1141      C1142   1.389       .  A
C1141      C1146   1.404       .  A
C1142      H1147   1.087   1_455  S
C1142      C1143   1.388       .  A
C1143      C2416   1.469   1_455  S
C1143      C1144   1.401       .  A
C1144      H1148   1.083       .  S
C1144      C1145   1.417       .  A
C1145      C1150   1.492       .  S
C1145      C1146   1.418       .  A
C1146      H1149   1.083       .  S
C1150      C1151   1.406       .  A
C1150      C1155   1.407       .  A
C1151      H1156   1.082       .  S
C1151      C1152   1.408       .  A
C1152      C1170   1.495       .  S
C1152      C1153   1.408       .  A
C1153      H1157   1.082       .  S
C1153      C1154   1.407       .  A
C1154      C1161   1.493       .  S
C1154      C1155   1.407       .  A
C1155      H1158   1.082       .  S
C1159      C1408   1.469       .  S
C1159      C1160   1.402       .  A
C1159      C1164   1.388       .  A
C1160      H1165   1.083       .  S
C1160      C1161   1.417       .  A
C1161      C1162   1.418       .  A
C1162      H1166   1.083       .  S
C1162      C1163   1.403       .  A
C1163      C1384   1.471       .  S
C1163      C1164   1.389       .  A
C1164      H1167   1.087       .  S
C1168      C1996   1.470       .  S
C1168      C1169   1.402       .  A
C1168      C1173   1.388       .  A
C1169      H1174   1.082       .  S
C1169      C1170   1.419       .  A
C1170      C1171   1.418       .  A
C1171      H1175   1.083       .  S
C1171      C1172   1.401       .  A
C1172      C1369   1.469       .  S
C1172      C1173   1.387       .  A
C1173      H1176   1.087       .  S
O1177     Mg1179   2.118       .  S
O1177     Mg1185   2.118       .  S
O1177      C1212   1.241       .  S
C1178      O1191   1.241       .  S
C1178      O1215   1.274       .  A
C1178      H1217   1.081       .  S
Mg1179     O1208   2.115       .  S
Mg1179     O1223   2.326       .  S
Mg1179     O1219   2.238       .  S
Mg1179     O1190   2.310       .  S
O1180     Mg1222   2.119       .  S
O1180     Mg1205   2.118       .  S
O1180      C1201   1.241       .  S
O1181      C1212   1.274       .  A
O1181     Mg1205   2.306       .  S
C1182      O1184   1.271       .  A
C1182      O1196   1.275       .  A
C1182      C1456   1.477       .  S
O1183      C1211   1.274       .  A
O1183     Mg1185   2.309       .  S
O1184     Mg1216   2.241       .  S
Mg1185     O1191   2.115       .  S
Mg1185     O1199   2.236       .  S
Mg1185     O1187   2.321       .  S
C1186      O1224   1.271       .  A
C1186      O1192   1.275       .  A
C1186      C1381   1.476       .  S
O1187      C1194   1.275       .  A
H1188      C1201   1.081       .  S
C1189      O1203   1.241       .  S
C1189      O1204   1.275       .  A
C1189      H1214   1.081       .  S
O1190      C1213   1.275       .  A
O1191     Mg1205   2.120       .  S
O1192     Mg1222   2.327       .  S
C1193      O1206   1.272       .  A
C1193      O1198   1.275       .  A
C1193      C1357   1.476       .  S
C1194      O1221   1.271       .  A
C1194      C1672   1.474       .  S
Mg1195     O1202   2.118       .  S
Mg1195     O1203   2.117       .  S
Mg1195     O1196   2.323       .  S
Mg1195     O1197   2.308       .  S
Mg1195     O1224   2.236       .  S
O1197      C1201   1.274       .  A
O1198     Mg1205   2.322       .  S
O1199      C1218   1.271       .  A
O1200      C1220   1.276       .  A
O1200     Mg1216   2.329       .  S
O1202     Mg1216   2.117       .  S
O1202      C1213   1.241       .  S
O1203     Mg1222   2.119       .  S
O1204     Mg1216   2.309       .  S
Mg1205     O1221   2.243       .  S
O1206     Mg1222   2.239       .  S
H1207      C1212   1.081       .  S
O1208     Mg1216   2.117       .  S
O1208      C1211   1.241       .  S
H1209      C1211   1.081       .  S
H1210      C1213   1.081       .  S
O1215     Mg1222   2.307       .  S
C1218      O1223   1.275       .  A
C1218      C1417   1.477       .  S
O1219      C1220   1.271       .  A
C1220      C1837   1.480       .  S
C1225      C1254   1.496       .  S
C1225      C1226   1.408       .  A
C1225      C1230   1.409       .  A
C1226      H1231   1.082       .  S
C1226      C1227   1.409       .  A
C1227      C1247   1.497       .  S
C1227      C1228   1.408       .  A
C1228      H1232   1.082       .  S
C1228      C1229   1.407       .  A
C1229      C1238   1.494       .  S
C1229      C1230   1.408       .  A
C1230      H1233   1.082       .  S
C1234      C2404   1.471   1_554  S
C1234      C1235   1.389       .  A
C1234      C1239   1.403       .  A
C1235      H1240   1.087   1_554  S
C1235      C1236   1.389       .  A
C1236      C1900   1.471       .  S
C1236      C1237   1.403       .  A
C1237      H1241   1.083       .  S
C1237      C1238   1.418       .  A
C1238      C1239   1.418       .  A
C1239      H1242   1.083       .  S
C1243      C1360   1.470   1_655  S
C1243      C1244   1.387       .  A
C1243      C1248   1.402       .  A
C1244      H1249   1.087   1_655  S
C1244      C1245   1.387       .  A
C1245      C2188   1.470       .  S
C1245      C1246   1.402       .  A
C1246      H1250   1.082       .  S
C1246      C1247   1.420       .  A
C1247      C1248   1.420       .  A
C1248      H1251   1.082       .  S
C1252      C2428   1.475       .  S
C1252      C1253   1.404       .  A
C1252      C1257   1.390       .  A
C1253      H1258   1.083       .  S
C1253      C1254   1.420       .  A
C1254      C1255   1.418       .  A
C1255      H1259   1.083       .  S
C1255      C1256   1.402       .  A
C1256      C2032   1.470       .  S
C1256      C1257   1.388       .  A
C1257      H1260   1.087       .  S
C1261      C1283   1.497       .  S
C1261      C1262   1.409       .  A
C1261      C1266   1.409       .  A
C1262      H1267   1.082       .  S
C1262      C1263   1.409       .  A
C1263      C1272   1.494       .  S
C1263      C1264   1.409       .  A
C1264      H1268   1.083       .  S
C1264      C1265   1.408       .  A
C1265      C1292   1.494       .  S
C1265      C1266   1.407       .  A
C1266      H1269   1.082       .  S
C1270      C1396   1.472       .  S
C1270      C1271   1.403       .  A
C1270      C1275   1.388       .  A
C1271      H1276   1.083       .  S
C1271      C1272   1.418       .  A
C1272      C1273   1.419       .  A
C1273      H1277   1.083       .  S
C1273      C1274   1.403       .  A
C1274      C1345   1.471   1_655  S
C1274      C1275   1.389       .  A
C1275      H1278   1.087   1_655  S
C1279      C2356   1.472   1_565  S
C1279      C1280   1.388       .  A
C1279      C1284   1.404       .  A
C1280      H1285   1.087   1_565  S
C1280      C1281   1.388       .  A
C1281      C1744   1.469       .  S
C1281      C1282   1.401       .  A
C1282      H1286   1.082       .  S
C1282      C1283   1.419       .  A
C1283      C1284   1.420       .  A
C1284      H1287   1.082       .  S
C1288      C1624   1.471       .  S
C1288      C1289   1.390       .  A
C1288      C1293   1.404       .  A
C1289      H1294   1.086   1_556  S
C1289      C1290   1.388       .  A
C1290      C2437   1.472   1_556  S
C1290      C1291   1.403       .  A
C1291      H1295   1.083       .  S
C1291      C1292   1.417       .  A
C1292      C1293   1.418       .  A
C1293      H1296   1.083       .  S
O1297     Mg1299   2.120       .  S
O1297     Mg1305   2.118       .  S
O1297      C1332   1.241       .  S
C1298      O1311   1.241       .  S
C1298      O1335   1.274       .  A
C1298      H1337   1.081       .  S
Mg1299     O1328   2.115       .  S
Mg1299     O1343   2.322       .  S
Mg1299     O1339   2.240       .  S
Mg1299     O1310   2.309       .  S
O1300     Mg1342   2.116       .  S
O1300     Mg1325   2.115       .  S
O1300      C1321   1.241       .  S
O1301      C1332   1.274       .  A
O1301     Mg1325   2.305       .  S
C1302      O1304   1.270       .  A
C1302      O1316   1.275       .  A
C1302      C1432   1.476       .  S
O1303      C1331   1.274       .  A
O1303     Mg1305   2.308       .  S
O1304     Mg1336   2.231       .  S
Mg1305     O1311   2.113       .  S
Mg1305     O1319   2.233       .  S
Mg1305     O1307   2.314       .  S
C1306      O1344   1.270       .  A
C1306      O1312   1.274       .  A
C1306      C1693   1.475       .  S
O1307      C1314   1.274       .  A
H1308      C1321   1.081       .  S
C1309      O1323   1.241       .  S
C1309      O1324   1.274       .  A
C1309      H1334   1.081       .  S
O1310      C1333   1.275       .  A
O1311     Mg1325   2.123       .  S
O1312     Mg1342   2.320       .  S
C1313      O1326   1.271       .  A
C1313      O1318   1.275       .  A
C1313      C2068   1.476       .  S
C1314      O1341   1.271       .  A
C1314      C1372   1.471       .  S
Mg1315     O1322   2.119       .  S
Mg1315     O1323   2.116       .  S
Mg1315     O1316   2.324       .  S
Mg1315     O1317   2.309       .  S
Mg1315     O1344   2.238       .  S
O1317      C1321   1.275       .  A
O1318     Mg1325   2.323       .  S
O1319      C1338   1.270       .  A
O1320      C1340   1.274       .  A
O1320     Mg1336   2.322       .  S
O1322     Mg1336   2.117       .  S
O1322      C1333   1.241       .  S
O1323     Mg1342   2.119       .  S
O1324     Mg1336   2.310       .  S
Mg1325     O1341   2.239       .  S
O1326     Mg1342   2.237       .  S
H1327      C1332   1.081       .  S
O1328     Mg1336   2.111       .  S
O1328      C1331   1.241       .  S
H1329      C1331   1.081       .  S
H1330      C1333   1.081       .  S
O1335     Mg1342   2.306       .  S
C1338      O1343   1.274       .  A
C1338      C1444   1.478       .  S
O1339      C1340   1.271       .  A
C1340      C1348   1.476       .  S
C1345      C1346   1.407       .  A
C1345      C1350   1.405       .  A
C1346      H1351   1.084       .  S
C1346      C1347   1.406       .  A
C1347      C1348   1.407       .  A
C1347      O1352   1.371       .  S
C1348      C1349   1.404       .  A
C1349      H1353   1.084       .  S
C1349      C1350   1.394       .  A
C1350      O1354   1.372       .  S
O1352      H1356   0.992       .  S
O1354      H1355   0.991       .  S
C1357      C1358   1.405       .  A
C1357      C1362   1.407       .  A
C1358      H1363   1.084       .  S
C1358      C1359   1.395       .  A
C1359      C1360   1.405       .  A
C1359      O1364   1.372       .  S
C1360      C1361   1.406       .  A
C1361      H1365   1.084       .  S
C1361      C1362   1.404       .  A
C1362      O1366   1.371       .  S
O1364      H1368   0.991       .  S
O1366      H1367   0.991       .  S
C1369      C1370   1.407       .  A
C1369      C1374   1.404       .  A
C1370      H1375   1.084       .  S
C1370      C1371   1.402       .  A
C1371      C1372   1.405       .  A
C1371      O1376   1.371       .  S
C1372      C1373   1.405       .  A
C1373      H1377   1.084       .  S
C1373      C1374   1.396       .  A
C1374      O1378   1.372       .  S
O1376      H1380   0.992       .  S
O1378      H1379   0.992       .  S
C1381      C1382   1.405       .  A
C1381      C1386   1.407       .  A
C1382      H1387   1.084       .  S
C1382      C1383   1.394       .  A
C1383      C1384   1.405       .  A
C1383      O1388   1.372       .  S
C1384      C1385   1.406       .  A
C1385      H1389   1.084       .  S
C1385      C1386   1.405       .  A
C1386      O1390   1.371       .  S
O1388      H1392   0.991       .  S
O1390      H1391   0.992       .  S
C1393      C1394   1.405       .  A
C1393      C1398   1.404       .  A
C1394      H1399   1.084       .  S
C1394      C1395   1.397       .  A
C1395      C1396   1.404       .  A
C1395      O1400   1.372       .  S
C1396      C1397   1.408       .  A
C1397      H1401   1.084       .  S
C1397      C1398   1.403       .  A
C1398      O1402   1.371       .  S
O1400      H1404   0.992       .  S
O1402      H1403   0.992       .  S
C1405      C1406   1.405       .  A
C1405      C1410   1.406       .  A
C1406      H1411   1.084       .  S
C1406      C1407   1.394       .  A
C1407      C1408   1.404       .  A
C1407      O1412   1.372       .  S
C1408      C1409   1.407       .  A
C1409      H1413   1.084       .  S
C1409      C1410   1.404       .  A
C1410      O1414   1.371       .  S
O1412      H1416   0.991       .  S
O1414      H1415   0.992       .  S
C1417      C1418   1.405       .  A
C1417      C1422   1.408       .  A
C1418      H1423   1.084       .  S
C1418      C1419   1.394       .  A
C1419      C1420   1.405       .  A
C1419      O1424   1.372       .  S
C1420      C1421   1.406       .  A
C1421      H1425   1.084       .  S
C1421      C1422   1.406       .  A
C1422      O1426   1.371       .  S
O1424      H1428   0.991       .  S
O1426      H1427   0.992       .  S
C1429      C1430   1.406       .  A
C1429      C1434   1.405       .  A
C1430      H1435   1.084       .  S
C1430      C1431   1.404       .  A
C1431      C1432   1.407       .  A
C1431      O1436   1.371       .  S
C1432      C1433   1.405       .  A
C1433      H1437   1.084       .  S
C1433      C1434   1.395       .  A
C1434      O1438   1.373       .  S
O1436      H1440   0.992       .  S
O1438      H1439   0.992       .  S
C1441      C1442   1.405       .  A
C1441      C1446   1.405       .  A
C1442      H1447   1.084       .  S
C1442      C1443   1.405       .  A
C1443      C1444   1.409       .  A
C1443      O1448   1.371       .  S
C1444      C1445   1.405       .  A
C1445      H1449   1.084       .  S
C1445      C1446   1.393       .  A
C1446      O1450   1.373       .  S
O1448      H1452   0.992       .  S
O1450      H1451   0.993       .  S
C1453      C1454   1.407       .  A
C1453      C1458   1.405       .  A
C1454      H1459   1.084       .  S
C1454      C1455   1.405       .  A
C1455      C1456   1.407       .  A
C1455      O1460   1.371       .  S
C1456      C1457   1.405       .  A
C1457      H1461   1.084       .  S
C1457      C1458   1.395       .  A
C1458      O1462   1.372       .  S
O1460      H1464   0.991       .  S
O1462      H1463   0.991       .  S
C1465      C1466   1.399       .  A
C1465      C1470   1.409       .  A
C1466      H1471   1.084       .  S
C1466      C1467   1.395       .  A
C1467      C1468   1.411       .  A
C1467      O1472   1.373       .  S
C1468      C1469   1.402       .  A
C1469      H1473   1.083       .  S
C1469      C1470   1.403       .  A
C1470      O1474   1.372       .  S
O1472      H1476   0.992       .  S
O1474      H1475   0.992       .  S
C1477      C1478   1.405       .  A
C1477      C1482   1.407       .  A
C1478      H1483   1.084       .  S
C1478      C1479   1.393       .  A
C1479      C1480   1.404       .  A
C1479      O1484   1.372       .  S
C1480      C1481   1.406       .  A
C1481      H1485   1.084       .  S
C1481      C1482   1.404       .  A
C1482      O1486   1.371       .  S
O1484      H1488   0.991       .  S
O1486      H1487   0.991       .  S
C1489      C1490   1.405       .  A
C1489      C1494   1.406       .  A
C1490      H1495   1.084       .  S
C1490      C1491   1.405       .  A
C1491      C1492   1.409       .  A
C1491      O1496   1.371       .  S
C1492      C1493   1.405       .  A
C1493      H1497   1.084       .  S
C1493      C1494   1.395       .  A
C1494      O1498   1.373       .  S
O1496      H1500   0.992       .  S
O1498      H1499   0.992       .  S
C1501      C1502   1.408       .  A
C1501      C1506   1.404       .  A
C1502      H1507   1.084       .  S
C1502      C1503   1.401       .  A
C1503      C1504   1.403       .  A
C1503      O1508   1.372       .  S
C1504      C1505   1.405       .  A
C1505      H1509   1.084       .  S
C1505      C1506   1.398       .  A
C1506      O1510   1.372       .  S
O1508      H1512   0.992       .  S
O1510      H1511   0.992       .  S
C1513      C1514   1.404       .  A
C1513      C1518   1.403       .  A
C1514      H1519   1.084       .  S
C1514      C1515   1.396       .  A
C1515      C1516   1.404       .  A
C1515      O1520   1.372       .  S
C1516      C1517   1.408       .  A
C1517      H1521   1.084       .  S
C1517      C1518   1.403       .  A
C1518      O1522   1.371       .  S
O1520      H1524   0.992       .  S
O1522      H1523   0.992       .  S
C1525      C1526   1.404       .  A
C1525      C1530   1.406       .  A
C1526      H1531   1.084       .  S
C1526      C1527   1.394       .  A
C1527      C1528   1.405       .  A
C1527      O1532   1.372       .  S
C1528      C1529   1.407       .  A
C1529      H1533   1.084       .  S
C1529      C1530   1.405       .  A
C1530      O1534   1.371       .  S
O1532      H1536   0.991       .  S
O1534      H1535   0.992       .  S
C1537      C1538   1.408       .  A
C1537      C1542   1.412       .  A
C1538      H1543   1.083       .  S
C1538      C1539   1.408       .  A
C1539      C1540   1.408       .  A
C1539      O1544   1.371       .  S
C1540      C1541   1.402       .  A
C1541      H1545   1.085       .  S
C1541      C1542   1.394       .  A
C1542      O1546   1.373       .  S
O1544      H1548   0.992       .  S
O1546      H1547   0.992       .  S
C1549      C1550   1.400       .  A
C1549      C1554   1.409       .  A
C1550      H1555   1.084       .  S
C1550      C1551   1.396       .  A
C1551      C1552   1.412       .  A
C1551      O1556   1.373       .  S
C1552      C1553   1.404       .  A
C1553      H1557   1.083       .  S
C1553      C1554   1.405       .  A
C1554      O1558   1.371       .  S
O1556      H1560   0.992       .  S
O1558      H1559   0.992       .  S
C1561      C1562   1.401       .  A
C1561      C1566   1.408       .  A
C1562      H1567   1.084       .  S
C1562      C1563   1.394       .  A
C1563      C1564   1.412       .  A
C1563      O1568   1.373       .  S
C1564      C1565   1.407       .  A
C1565      H1569   1.083       .  S
C1565      C1566   1.408       .  A
C1566      O1570   1.371       .  S
O1568      H1572   0.992       .  S
O1570      H1571   0.992       .  S
C1573      C1574   1.399       .  A
C1573      C1578   1.410       .  A
C1574      H1579   1.083       .  S
C1574      C1575   1.403       .  A
C1575      C1576   1.413       .  A
C1575      O1580   1.373       .  S
C1576      C1577   1.399       .  A
C1577      H1581   1.084       .  S
C1577      C1578   1.398       .  A
C1578      O1582   1.372       .  S
O1580      H1584   0.992       .  S
O1582      H1583   0.992       .  S
C1585      C1586   1.406       .  A
C1585      C1590   1.406       .  A
C1586      H1591   1.084       .  S
C1586      C1587   1.405       .  A
C1587      C1588   1.407       .  A
C1587      O1592   1.371       .  S
C1588      C1589   1.404       .  A
C1589      H1593   1.084       .  S
C1589      C1590   1.394       .  A
C1590      O1594   1.372       .  S
O1592      H1596   0.992       .  S
O1594      H1595   0.991       .  S
C1597      C1598   1.407       .  A
C1597      C1602   1.404       .  A
C1598      H1603   1.084       .  S
C1598      C1599   1.404       .  A
C1599      C1600   1.406       .  A
C1599      O1604   1.371       .  S
C1600      C1601   1.405       .  A
C1601      H1605   1.084       .  S
C1601      C1602   1.395       .  A
C1602      O1606   1.372       .  S
O1604      H1608   0.992       .  S
O1606      H1607   0.992       .  S
C1609      C1610   1.404       .  A
C1609      C1614   1.407       .  A
C1610      H1615   1.084       .  S
C1610      C1611   1.398       .  A
C1611      C1612   1.406       .  A
C1611      O1616   1.372       .  S
C1612      C1613   1.406       .  A
C1613      H1617   1.084       .  S
C1613      C1614   1.406       .  A
C1614      O1618   1.371       .  S
O1616      H1620   0.992       .  S
O1618      H1619   0.992       .  S
C1621      C1622   1.403       .  A
C1621      C1626   1.411       .  A
C1622      H1627   1.083       .  S
C1622      C1623   1.405       .  A
C1623      C1624   1.410       .  A
C1623      O1628   1.372       .  S
C1624      C1625   1.399       .  A
C1625      H1629   1.084       .  S
C1625      C1626   1.395       .  A
C1626      O1630   1.373       .  S
O1628      H1632   0.992       .  S
O1630      H1631   0.992   1_556  S
C1633      C1634   1.405       .  A
C1633      C1638   1.412       .  A
C1634      H1639   1.083       .  S
C1634      C1635   1.406       .  A
C1635      C1636   1.408       .  A
C1635      O1640   1.371       .  S
C1636      C1637   1.400       .  A
C1637      H1641   1.085       .  S
C1637      C1638   1.394       .  A
C1638      O1642   1.373       .  S
O1640      H1644   0.992       .  S
O1642      H1643   0.993   1_655  S
C1645      C1646   1.405       .  A
C1645      C1650   1.401       .  A
C1646      H1651   1.084       .  S
C1646      C1647   1.399       .  A
C1647      C1648   1.404       .  A
C1647      O1652   1.371       .  S
C1648      C1649   1.409       .  A
C1649      H1653   1.084       .  S
C1649      C1650   1.400       .  A
C1650      O1654   1.372       .  S
O1652      H1656   0.992       .  S
O1654      H1655   0.992   1_455  S
C1657      C1658   1.403       .  A
C1657      C1662   1.412       .  A
C1658      H1663   1.083       .  S
C1658      C1659   1.404       .  A
C1659      C1660   1.410       .  A
C1659      O1664   1.371       .  S
C1660      C1661   1.399       .  A
C1661      H1665   1.084       .  S
C1661      C1662   1.396       .  A
C1662      O1666   1.373       .  S
O1664      H1668   0.992       .  S
O1666      H1667   0.992   1_554  S
C1669      C1670   1.399       .  A
C1669      C1674   1.412       .  A
C1670      H1675   1.084       .  S
C1670      C1671   1.397       .  A
C1671      C1672   1.411       .  A
C1671      O1676   1.372       .  S
C1672      C1673   1.401       .  A
C1673      H1677   1.083       .  S
C1673      C1674   1.404       .  A
C1674      O1678   1.372       .  S
O1676      H1680   0.992       .  S
O1678      H1679   0.992       .  S
C1681      C1682   1.400       .  A
C1681      C1686   1.409       .  A
C1682      H1687   1.084       .  S
C1682      C1683   1.395       .  A
C1683      C1684   1.411       .  A
C1683      O1688   1.373       .  S
C1684      C1685   1.404       .  A
C1685      H1689   1.083       .  S
C1685      C1686   1.405       .  A
C1686      O1690   1.371       .  S
O1688      H1692   0.993       .  S
O1690      H1691   0.992       .  S
C1693      C1694   1.403       .  A
C1693      C1698   1.411       .  A
C1694      H1699   1.083       .  S
C1694      C1695   1.404       .  A
C1695      C1696   1.409       .  A
C1695      O1700   1.371       .  S
C1696      C1697   1.399       .  A
C1697      H1701   1.084       .  S
C1697      C1698   1.395       .  A
C1698      O1702   1.373       .  S
O1700      H1704   0.992       .  S
O1702      H1703   0.992       .  S
C1705      C1706   1.399       .  A
C1705      C1710   1.410       .  A
C1706      H1711   1.084       .  S
C1706      C1707   1.396       .  A
C1707      C1708   1.411       .  A
C1707      O1712   1.373       .  S
C1708      C1709   1.402       .  A
C1709      H1713   1.083       .  S
C1709      C1710   1.405       .  A
C1710      O1714   1.372       .  S
O1712      H1716   0.992       .  S
O1714      H1715   0.992       .  S
C1717      C1718   1.401       .  A
C1717      C1722   1.409       .  A
C1718      H1723   1.084       .  S
C1718      C1719   1.396       .  A
C1719      C1720   1.411       .  A
C1719      O1724   1.373       .  S
C1720      C1721   1.405       .  A
C1721      H1725   1.083       .  S
C1721      C1722   1.407       .  A
C1722      O1726   1.372       .  S
O1724      H1728   0.992       .  S
O1726      H1727   0.992       .  S
C1729      C1730   1.399       .  A
C1729      C1734   1.411       .  A
C1730      H1735   1.084       .  S
C1730      C1731   1.395       .  A
C1731      C1732   1.410       .  A
C1731      O1736   1.372       .  S
C1732      C1733   1.400       .  A
C1733      H1737   1.083       .  S
C1733      C1734   1.403       .  A
C1734      O1738   1.372       .  S
O1736      H1740   0.992       .  S
O1738      H1739   0.992       .  S
C1741      C1742   1.403       .  A
C1741      C1746   1.411       .  A
C1742      H1747   1.083       .  S
C1742      C1743   1.403       .  A
C1743      C1744   1.409       .  A
C1743      O1748   1.371       .  S
C1744      C1745   1.399       .  A
C1745      H1749   1.084       .  S
C1745      C1746   1.396       .  A
C1746      O1750   1.373       .  S
O1748      H1752   0.992       .  S
O1750      H1751   0.992   1_565  S
C1753      C1754   1.405       .  A
C1753      C1758   1.408       .  A
C1754      H1759   1.084       .  S
C1754      C1755   1.394       .  A
C1755      C1756   1.405       .  A
C1755      O1760   1.372       .  S
C1756      C1757   1.405       .  A
C1757      H1761   1.084       .  S
C1757      C1758   1.404       .  A
C1758      O1762   1.371       .  S
O1760      H1764   0.991       .  S
O1762      H1763   0.992       .  S
C1765      C1766   1.405       .  A
C1765      C1770   1.408       .  A
C1766      H1771   1.084       .  S
C1766      C1767   1.395       .  A
C1767      C1768   1.406       .  A
C1767      O1772   1.372       .  S
C1768      C1769   1.407       .  A
C1769      H1773   1.084       .  S
C1769      C1770   1.406       .  A
C1770      O1774   1.371       .  S
O1772      H1776   0.991       .  S
O1774      H1775   0.991       .  S
C1777      C1778   1.404       .  A
C1777      C1782   1.412       .  A
C1778      H1783   1.083       .  S
C1778      C1779   1.405       .  A
C1779      C1780   1.410       .  A
C1779      O1784   1.371       .  S
C1780      C1781   1.400       .  A
C1781      H1785   1.084       .  S
C1781      C1782   1.396       .  A
C1782      O1786   1.373       .  S
O1784      H1788   0.992       .  S
O1786      H1787   0.992   1_554  S
C1789      C1790   1.407       .  A
C1789      C1794   1.406       .  A
C1790      H1795   1.084       .  S
C1790      C1791   1.407       .  A
C1791      C1792   1.409       .  A
C1791      O1796   1.371       .  S
C1792      C1793   1.406       .  A
C1793      H1797   1.084       .  S
C1793      C1794   1.395       .  A
C1794      O1798   1.372       .  S
O1796      H1800   0.991       .  S
O1798      H1799   0.991       .  S
C1801      C1802   1.413       .  A
C1801      C1806   1.408       .  A
C1802      H1807   1.083       .  S
C1802      C1803   1.390       .  A
C1803      C1804   1.397       .  A
C1803      O1808   1.372       .  S
C1804      C1805   1.409       .  A
C1805      H1809   1.084       .  S
C1805      C1806   1.408       .  A
C1806      O1810   1.371       .  S
O1808      H1812   0.991       .  S
O1810      H1811   0.992       .  S
C1813      C1814   1.400       .  A
C1813      C1818   1.412       .  A
C1814      H1819   1.084       .  S
C1814      C1815   1.400       .  A
C1815      C1816   1.409       .  A
C1815      O1820   1.372       .  S
C1816      C1817   1.399       .  A
C1817      H1821   1.083       .  S
C1817      C1818   1.403       .  A
C1818      O1822   1.372       .  S
O1820      H1824   0.992       .  S
O1822      H1823   0.992       .  S
C1825      C1826   1.400       .  A
C1825      C1830   1.410       .  A
C1826      H1831   1.084       .  S
C1826      C1827   1.395       .  A
C1827      C1828   1.410       .  A
C1827      O1832   1.372       .  S
C1828      C1829   1.403       .  A
C1829      H1833   1.083       .  S
C1829      C1830   1.405       .  A
C1830      O1834   1.372       .  S
O1832      H1836   0.991       .  S
O1834      H1835   0.991       .  S
C1837      C1838   1.406       .  A
C1837      C1842   1.409       .  A
C1838      H1843   1.084       .  S
C1838      C1839   1.394       .  A
C1839      C1840   1.406       .  A
C1839      O1844   1.373       .  S
C1840      C1841   1.406       .  A
C1841      H1845   1.084       .  S
C1841      C1842   1.406       .  A
C1842      O1846   1.371       .  S
O1844      H1848   0.991       .  S
O1846      H1847   0.991       .  S
C1849      C1850   1.400       .  A
C1849      C1854   1.408       .  A
C1850      H1855   1.084       .  S
C1850      C1851   1.394       .  A
C1851      C1852   1.413       .  A
C1851      O1856   1.373       .  S
C1852      C1853   1.405       .  A
C1853      H1857   1.083       .  S
C1853      C1854   1.405       .  A
C1854      O1858   1.371       .  S
O1856      H1860   0.993       .  S
O1858      H1859   0.992       .  S
C1861      C1862   1.406       .  A
C1861      C1866   1.413       .  A
C1862      H1867   1.083       .  S
C1862      C1863   1.407       .  A
C1863      C1864   1.408       .  A
C1863      O1868   1.371       .  S
C1864      C1865   1.400       .  A
C1865      H1869   1.085       .  S
C1865      C1866   1.394       .  A
C1866      O1870   1.373       .  S
O1868      H1872   0.992       .  S
O1870      H1871   0.993   1_545  S
C1873      C1874   1.405       .  A
C1873      C1878   1.410       .  A
C1874      H1879   1.084       .  S
C1874      C1875   1.393       .  A
C1875      C1876   1.405       .  A
C1875      O1880   1.374       .  S
C1876      C1877   1.405       .  A
C1877      H1881   1.083       .  S
C1877      C1878   1.406       .  A
C1878      O1882   1.371       .  S
O1880      H1884   0.993       .  S
O1882      H1883   0.992       .  S
C1885      C1886   1.405       .  A
C1885      C1890   1.410       .  A
C1886      H1891   1.084       .  S
C1886      C1887   1.393       .  A
C1887      C1888   1.406       .  A
C1887      O1892   1.374       .  S
C1888      C1889   1.405       .  A
C1889      H1893   1.083       .  S
C1889      C1890   1.407       .  A
C1890      O1894   1.371       .  S
O1892      H1896   0.993   1_455  S
O1894      H1895   0.991       .  S
C1897      C1898   1.404       .  A
C1897      C1902   1.406       .  A
C1898      H1903   1.084       .  S
C1898      C1899   1.395       .  A
C1899      C1900   1.405       .  A
C1899      O1904   1.372       .  S
C1900      C1901   1.407       .  A
C1901      H1905   1.084       .  S
C1901      C1902   1.405       .  A
C1902      O1906   1.371       .  S
O1904      H1908   0.991       .  S
O1906      H1907   0.992       .  S
C1909      C1910   1.404       .  A
C1909      C1914   1.407       .  A
C1910      H1915   1.084       .  S
C1910      C1911   1.394       .  A
C1911      C1912   1.405       .  A
C1911      O1916   1.372       .  S
C1912      C1913   1.406       .  A
C1913      H1917   1.084       .  S
C1913      C1914   1.405       .  A
C1914      O1918   1.371       .  S
O1916      H1920   0.991       .  S
O1918      H1919   0.991       .  S
C1921      C1922   1.404       .  A
C1921      C1926   1.411       .  A
C1922      H1927   1.083       .  S
C1922      C1923   1.405       .  A
C1923      C1924   1.409       .  A
C1923      O1928   1.371       .  S
C1924      C1925   1.399       .  A
C1925      H1929   1.084       .  S
C1925      C1926   1.395       .  A
C1926      O1930   1.373       .  S
O1928      H1932   0.992       .  S
O1930      H1931   0.993   1_655  S
C1933      C1934   1.404       .  A
C1933      C1938   1.407       .  A
C1934      H1939   1.084       .  S
C1934      C1935   1.395       .  A
C1935      C1936   1.406       .  A
C1935      O1940   1.372       .  S
C1936      C1937   1.407       .  A
C1937      H1941   1.084       .  S
C1937      C1938   1.405       .  A
C1938      O1942   1.371       .  S
O1940      H1944   0.991       .  S
O1942      H1943   0.991       .  S
C1945      C1946   1.405       .  A
C1945      C1950   1.412       .  A
C1946      H1951   1.083       .  S
C1946      C1947   1.405       .  A
C1947      C1948   1.408       .  A
C1947      O1952   1.371       .  S
C1948      C1949   1.399       .  A
C1949      H1953   1.085       .  S
C1949      C1950   1.394       .  A
C1950      O1954   1.373       .  S
O1952      H1956   0.992       .  S
O1954      H1955   0.993       .  S
C1957      C1958   1.402       .  A
C1957      C1962   1.410       .  A
C1958      H1963   1.083       .  S
C1958      C1959   1.404       .  A
C1959      C1960   1.410       .  A
C1959      O1964   1.372       .  S
C1960      C1961   1.399       .  A
C1961      H1965   1.084       .  S
C1961      C1962   1.396       .  A
C1962      O1966   1.373       .  S
O1964      H1968   0.992       .  S
O1966      H1967   0.992       .  S
C1969      C1970   1.400       .  A
C1969      C1974   1.409       .  A
C1970      H1975   1.084       .  S
C1970      C1971   1.396       .  A
C1971      C1972   1.412       .  A
C1971      O1976   1.373       .  S
C1972      C1973   1.404       .  A
C1973      H1977   1.083       .  S
C1973      C1974   1.405       .  A
C1974      O1978   1.371       .  S
O1976      H1980   0.992       .  S
O1978      H1979   0.992       .  S
C1981      C1982   1.405       .  A
C1981      C1986   1.409       .  A
C1982      H1987   1.084       .  S
C1982      C1983   1.394       .  A
C1983      C1984   1.405       .  A
C1983      O1988   1.372       .  S
C1984      C1985   1.406       .  A
C1985      H1989   1.084       .  S
C1985      C1986   1.406       .  A
C1986      O1990   1.371       .  S
O1988      H1992   0.991       .  S
O1990      H1991   0.991       .  S
C1993      C1994   1.404       .  A
C1993      C1998   1.409       .  A
C1994      H1999   1.084       .  S
C1994      C1995   1.393       .  A
C1995      C1996   1.406       .  A
C1995      O2000   1.372       .  S
C1996      C1997   1.405       .  A
C1997      H2001   1.084       .  S
C1997      C1998   1.405       .  A
C1998      O2002   1.371       .  S
O2000      H2004   0.991       .  S
O2002      H2003   0.991       .  S
C2005      C2006   1.403       .  A
C2005      C2010   1.412       .  A
C2006      H2011   1.083       .  S
C2006      C2007   1.403       .  A
C2007      C2008   1.409       .  A
C2007      O2012   1.371       .  S
C2008      C2009   1.399       .  A
C2009      H2013   1.084       .  S
C2009      C2010   1.395       .  A
C2010      O2014   1.373       .  S
O2012      H2016   0.992       .  S
O2014      H2015   0.992       .  S
C2017      C2018   1.406       .  A
C2017      C2022   1.405       .  A
C2018      H2023   1.084       .  S
C2018      C2019   1.406       .  A
C2019      C2020   1.408       .  A
C2019      O2024   1.371       .  S
C2020      C2021   1.405       .  A
C2021      H2025   1.084       .  S
C2021      C2022   1.393       .  A
C2022      O2026   1.372       .  S
O2024      H2028   0.992       .  S
O2026      H2027   0.991       .  S
C2029      C2030   1.402       .  A
C2029      C2034   1.411       .  A
C2030      H2035   1.083       .  S
C2030      C2031   1.404       .  A
C2031      C2032   1.410       .  A
C2031      O2036   1.372       .  S
C2032      C2033   1.400       .  A
C2033      H2037   1.084       .  S
C2033      C2034   1.395       .  A
C2034      O2038   1.372       .  S
O2036      H2040   0.992       .  S
O2038      H2039   0.991       .  S
C2041      C2042   1.402       .  A
C2041      C2046   1.411       .  A
C2042      H2047   1.083       .  S
C2042      C2043   1.404       .  A
C2043      C2044   1.410       .  A
C2043      O2048   1.372       .  S
C2044      C2045   1.399       .  A
C2045      H2049   1.084       .  S
C2045      C2046   1.396       .  A
C2046      O2050   1.373       .  S
O2048      H2052   0.992       .  S
O2050      H2051   0.992   1_556  S
C2053      C2054   1.400       .  A
C2053      C2058   1.410       .  A
C2054      H2059   1.084       .  S
C2054      C2055   1.396       .  A
C2055      C2056   1.411       .  A
C2055      O2060   1.372       .  S
C2056      C2057   1.402       .  A
C2057      H2061   1.083       .  S
C2057      C2058   1.404       .  A
C2058      O2062   1.372       .  S
O2060      H2064   0.991       .  S
O2062      H2063   0.992       .  S
C2065      C2066   1.407       .  A
C2065      C2070   1.405       .  A
C2066      H2071   1.084       .  S
C2066      C2067   1.405       .  A
C2067      C2068   1.407       .  A
C2067      O2072   1.371       .  S
C2068      C2069   1.405       .  A
C2069      H2073   1.084       .  S
C2069      C2070   1.395       .  A
C2070      O2074   1.372       .  S
O2072      H2076   0.992       .  S
O2074      H2075   0.992       .  S
C2077      C2078   1.406       .  A
C2077      C2082   1.406       .  A
C2078      H2083   1.084       .  S
C2078      C2079   1.406       .  A
C2079      C2080   1.409       .  A
C2079      O2084   1.371       .  S
C2080      C2081   1.405       .  A
C2081      H2085   1.084       .  S
C2081      C2082   1.394       .  A
C2082      O2086   1.372       .  S
O2084      H2088   0.991       .  S
O2086      H2087   0.991       .  S
C2089      C2090   1.403       .  A
C2089      C2094   1.408       .  A
C2090      H2095   1.084       .  S
C2090      C2091   1.396       .  A
C2091      C2092   1.406       .  A
C2091      O2096   1.372       .  S
C2092      C2093   1.406       .  A
C2093      H2097   1.084       .  S
C2093      C2094   1.406       .  A
C2094      O2098   1.371       .  S
O2096      H2100   0.992       .  S
O2098      H2099   0.992       .  S
C2101      C2102   1.405       .  A
C2101      C2106   1.406       .  A
C2102      H2107   1.084       .  S
C2102      C2103   1.406       .  A
C2103      C2104   1.410       .  A
C2103      O2108   1.371       .  S
C2104      C2105   1.404       .  A
C2105      H2109   1.084       .  S
C2105      C2106   1.394       .  A
C2106      O2110   1.374       .  S
O2108      H2112   0.992       .  S
O2110      H2111   0.992       .  S
C2113      C2114   1.404       .  A
C2113      C2118   1.408       .  A
C2114      H2119   1.083       .  S
C2114      C2115   1.407       .  A
C2115      C2116   1.412       .  A
C2115      O2120   1.371       .  S
C2116      C2117   1.404       .  A
C2117      H2121   1.084       .  S
C2117      C2118   1.395       .  A
C2118      O2122   1.374       .  S
O2120      H2124   0.992       .  S
O2122      H2123   0.993       .  S
C2125      C2126   1.405       .  A
C2125      C2130   1.411       .  A
C2126      H2131   1.083       .  S
C2126      C2127   1.406       .  A
C2127      C2128   1.408       .  A
C2127      O2132   1.372       .  S
C2128      C2129   1.400       .  A
C2129      H2133   1.084       .  S
C2129      C2130   1.394       .  A
C2130      O2134   1.373       .  S
O2132      H2136   0.992       .  S
O2134      H2135   0.992       .  S
C2137      C2138   1.408       .  A
C2137      C2142   1.413       .  A
C2138      H2143   1.083       .  S
C2138      C2139   1.408       .  A
C2139      C2140   1.408       .  A
C2139      O2144   1.371       .  S
C2140      C2141   1.402       .  A
C2141      H2145   1.084       .  S
C2141      C2142   1.394       .  A
C2142      O2146   1.373       .  S
O2144      H2148   0.992       .  S
O2146      H2147   0.993   1_565  S
C2149      C2150   1.405       .  A
C2149      C2154   1.407       .  A
C2150      H2155   1.084       .  S
C2150      C2151   1.395       .  A
C2151      C2152   1.405       .  A
C2151      O2156   1.372       .  S
C2152      C2153   1.406       .  A
C2153      H2157   1.084       .  S
C2153      C2154   1.404       .  A
C2154      O2158   1.371       .  S
O2156      H2160   0.991       .  S
O2158      H2159   0.992       .  S
C2161      C2162   1.405       .  A
C2161      C2166   1.408       .  A
C2162      H2167   1.084       .  S
C2162      C2163   1.395       .  A
C2163      C2164   1.405       .  A
C2163      O2168   1.373       .  S
C2164      C2165   1.405       .  A
C2165      H2169   1.084       .  S
C2165      C2166   1.404       .  A
C2166      O2170   1.371       .  S
O2168      H2172   0.992       .  S
O2170      H2171   0.992       .  S
C2173      C2174   1.405       .  A
C2173      C2178   1.413       .  A
C2174      H2179   1.083       .  S
C2174      C2175   1.405       .  A
C2175      C2176   1.408       .  A
C2175      O2180   1.371       .  S
C2176      C2177   1.400       .  A
C2177      H2181   1.084       .  S
C2177      C2178   1.395       .  A
C2178      O2182   1.373       .  S
O2180      H2184   0.992       .  S
O2182      H2183   0.993       .  S
C2185      C2186   1.405       .  A
C2185      C2190   1.409       .  A
C2186      H2191   1.084       .  S
C2186      C2187   1.394       .  A
C2187      C2188   1.406       .  A
C2187      O2192   1.373       .  S
C2188      C2189   1.405       .  A
C2189      H2193   1.084       .  S
C2189      C2190   1.405       .  A
C2190      O2194   1.371       .  S
O2192      H2196   0.992       .  S
O2194      H2195   0.991       .  S
C2197      C2198   1.405       .  A
C2197      C2202   1.412       .  A
C2198      H2203   1.083       .  S
C2198      C2199   1.405       .  A
C2199      C2200   1.409       .  A
C2199      O2204   1.371       .  S
C2200      C2201   1.400       .  A
C2201      H2205   1.084       .  S
C2201      C2202   1.393       .  A
C2202      O2206   1.372       .  S
O2204      H2208   0.992       .  S
O2206      H2207   0.991       .  S
C2209      C2210   1.405       .  A
C2209      C2214   1.409       .  A
C2210      H2215   1.084       .  S
C2210      C2211   1.395       .  A
C2211      C2212   1.406       .  A
C2211      O2216   1.373       .  S
C2212      C2213   1.406       .  A
C2213      H2217   1.084       .  S
C2213      C2214   1.406       .  A
C2214      O2218   1.371       .  S
O2216      H2220   0.993       .  S
O2218      H2219   0.992       .  S
C2221      C2222   1.400       .  A
C2221      C2226   1.409       .  A
C2222      H2227   1.084       .  S
C2222      C2223   1.396       .  A
C2223      C2224   1.412       .  A
C2223      O2228   1.373       .  S
C2224      C2225   1.404       .  A
C2225      H2229   1.083       .  S
C2225      C2226   1.404       .  A
C2226      O2230   1.371       .  S
O2228      H2232   0.992       .  S
O2230      H2231   0.992       .  S
C2233      C2234   1.404       .  A
C2233      C2238   1.416       .  A
C2234      H2239   1.084       .  S
C2234      C2235   1.390       .  A
C2235      C2236   1.410       .  A
C2235      O2240   1.373       .  S
C2236      C2237   1.403       .  A
C2237      H2241   1.083       .  S
C2237      C2238   1.409       .  A
C2238      O2242   1.371       .  S
O2240      H2244   0.991       .  S
O2242      H2243   0.993       .  S
C2245      C2246   1.403       .  A
C2245      C2250   1.410       .  A
C2246      H2251   1.083       .  S
C2246      C2247   1.404       .  A
C2247      C2248   1.409       .  A
C2247      O2252   1.371       .  S
C2248      C2249   1.400       .  A
C2249      H2253   1.084       .  S
C2249      C2250   1.395       .  A
C2250      O2254   1.372       .  S
O2252      H2256   0.991       .  S
O2254      H2255   0.992       .  S
C2257      C2258   1.405       .  A
C2257      C2262   1.405       .  A
C2258      H2263   1.084       .  S
C2258      C2259   1.405       .  A
C2259      C2260   1.408       .  A
C2259      O2264   1.371       .  S
C2260      C2261   1.405       .  A
C2261      H2265   1.084       .  S
C2261      C2262   1.393       .  A
C2262      O2266   1.373       .  S
O2264      H2268   0.992       .  S
O2266      H2267   0.991       .  S
C2269      C2270   1.405       .  A
C2269      C2274   1.408       .  A
C2270      H2275   1.084       .  S
C2270      C2271   1.394       .  A
C2271      C2272   1.405       .  A
C2271      O2276   1.372       .  S
C2272      C2273   1.406       .  A
C2273      H2277   1.084       .  S
C2273      C2274   1.406       .  A
C2274      O2278   1.371       .  S
O2276      H2280   0.991       .  S
O2278      H2279   0.991       .  S
C2281      C2282   1.404       .  A
C2281      C2286   1.412       .  A
C2282      H2287   1.083       .  S
C2282      C2283   1.405       .  A
C2283      C2284   1.409       .  A
C2283      O2288   1.371       .  S
C2284      C2285   1.400       .  A
C2285      H2289   1.084       .  S
C2285      C2286   1.393       .  A
C2286      O2290   1.372       .  S
O2288      H2292   0.992       .  S
O2290      H2291   0.991       .  S
C2293      C2294   1.405       .  A
C2293      C2298   1.405       .  A
C2294      H2299   1.084       .  S
C2294      C2295   1.397       .  A
C2295      C2296   1.404       .  A
C2295      O2300   1.371       .  S
C2296      C2297   1.408       .  A
C2297      H2301   1.084       .  S
C2297      C2298   1.405       .  A
C2298      O2302   1.371       .  S
O2300      H2304   0.991       .  S
O2302      H2303   0.992       .  S
C2305      C2306   1.404       .  A
C2305      C2310   1.412       .  A
C2306      H2311   1.084       .  S
C2306      C2307   1.398       .  A
C2307      C2308   1.409       .  A
C2307      O2312   1.374       .  S
C2308      C2309   1.404       .  A
C2309      H2313   1.083       .  S
C2309      C2310   1.405       .  A
C2310      O2314   1.371       .  S
O2312      H2316   0.992       .  S
O2314      H2315   0.992       .  S
C2317      C2318   1.401       .  A
C2317      C2322   1.410       .  A
C2318      H2323   1.083       .  S
C2318      C2319   1.404       .  A
C2319      C2320   1.411       .  A
C2319      O2324   1.372       .  S
C2320      C2321   1.399       .  A
C2321      H2325   1.084       .  S
C2321      C2322   1.395       .  A
C2322      O2326   1.372       .  S
O2324      H2328   0.992       .  S
O2326      H2327   0.991       .  S
C2329      C2330   1.407       .  A
C2329      C2334   1.405       .  A
C2330      H2335   1.084       .  S
C2330      C2331   1.406       .  A
C2331      C2332   1.407       .  A
C2331      O2336   1.371       .  S
C2332      C2333   1.406       .  A
C2333      H2337   1.084       .  S
C2333      C2334   1.395       .  A
C2334      O2338   1.372       .  S
O2336      H2340   0.992       .  S
O2338      H2339   0.991       .  S
C2341      C2342   1.405       .  A
C2341      C2346   1.409       .  A
C2342      H2347   1.084       .  S
C2342      C2343   1.395       .  A
C2343      C2344   1.406       .  A
C2343      O2348   1.373       .  S
C2344      C2345   1.406       .  A
C2345      H2349   1.084       .  S
C2345      C2346   1.406       .  A
C2346      O2350   1.371       .  S
O2348      H2352   0.993       .  S
O2350      H2351   0.992       .  S
C2353      C2354   1.405       .  A
C2353      C2358   1.408       .  A
C2354      H2359   1.084       .  S
C2354      C2355   1.394       .  A
C2355      C2356   1.405       .  A
C2355      O2360   1.372       .  S
C2356      C2357   1.406       .  A
C2357      H2361   1.084       .  S
C2357      C2358   1.406       .  A
C2358      O2362   1.371       .  S
O2360      H2364   0.991       .  S
O2362      H2363   0.992       .  S
C2365      C2366   1.400       .  A
C2365      C2370   1.409       .  A
C2366      H2371   1.084       .  S
C2366      C2367   1.395       .  A
C2367      C2368   1.412       .  A
C2367      O2372   1.373       .  S
C2368      C2369   1.404       .  A
C2369      H2373   1.083       .  S
C2369      C2370   1.404       .  A
C2370      O2374   1.371       .  S
O2372      H2376   0.992       .  S
O2374      H2375   0.992       .  S
C2377      C2378   1.400       .  A
C2377      C2382   1.410       .  A
C2378      H2383   1.084       .  S
C2378      C2379   1.396       .  A
C2379      C2380   1.411       .  A
C2379      O2384   1.373       .  S
C2380      C2381   1.403       .  A
C2381      H2385   1.083       .  S
C2381      C2382   1.404       .  A
C2382      O2386   1.371       .  S
O2384      H2388   0.992       .  S
O2386      H2387   0.992       .  S
C2389      C2390   1.405       .  A
C2389      C2394   1.408       .  A
C2390      H2395   1.084       .  S
C2390      C2391   1.393       .  A
C2391      C2392   1.405       .  A
C2391      O2396   1.372       .  S
C2392      C2393   1.406       .  A
C2393      H2397   1.084       .  S
C2393      C2394   1.405       .  A
C2394      O2398   1.371       .  S
O2396      H2400   0.991       .  S
O2398      H2399   0.992       .  S
C2401      C2402   1.404       .  A
C2401      C2406   1.405       .  A
C2402      H2407   1.084       .  S
C2402      C2403   1.396       .  A
C2403      C2404   1.404       .  A
C2403      O2408   1.372       .  S
C2404      C2405   1.408       .  A
C2405      H2409   1.084       .  S
C2405      C2406   1.404       .  A
C2406      O2410   1.371       .  S
O2408      H2412   0.992       .  S
O2410      H2411   0.992       .  S
C2413      C2414   1.404       .  A
C2413      C2418   1.407       .  A
C2414      H2419   1.084       .  S
C2414      C2415   1.394       .  A
C2415      C2416   1.406       .  A
C2415      O2420   1.373       .  S
C2416      C2417   1.406       .  A
C2417      H2421   1.084       .  S
C2417      C2418   1.404       .  A
C2418      O2422   1.371       .  S
O2420      H2424   0.992       .  S
O2422      H2423   0.992       .  S
C2425      C2426   1.406       .  A
C2425      C2430   1.411       .  A
C2426      H2431   1.083       .  S
C2426      C2427   1.406       .  A
C2427      C2428   1.408       .  A
C2427      O2432   1.371       .  S
C2428      C2429   1.401       .  A
C2429      H2433   1.084       .  S
C2429      C2430   1.395       .  A
C2430      O2434   1.373       .  S
O2432      H2436   0.992       .  S
O2434      H2435   0.992       .  S
C2437      C2438   1.400       .  A
C2437      C2442   1.410       .  A
C2438      H2443   1.084       .  S
C2438      C2439   1.397       .  A
C2439      C2440   1.409       .  A
C2439      O2444   1.372       .  S
C2440      C2441   1.402       .  A
C2441      H2445   1.083       .  S
C2441      C2442   1.404       .  A
C2442      O2446   1.372       .  S
O2444      H2448   0.992       .  S
O2446      H2447   0.992       .  S
C2449      C2450   1.404       .  A
C2449      C2454   1.410       .  A
C2450      H2455   1.084       .  S
C2450      C2451   1.393       .  A
C2451      C2452   1.407       .  A
C2451      O2456   1.372       .  S
C2452      C2453   1.405       .  A
C2453      H2457   1.084       .  S
C2453      C2454   1.407       .  A
C2454      O2458   1.371       .  S
O2456      H2460   0.991       .  S
O2458      H2459   0.992       .  S
C2461      C2462   1.404       .  A
C2461      C2466   1.410       .  A
C2462      H2467   1.084       .  S
C2462      C2463   1.395       .  A
C2463      C2464   1.407       .  A
C2463      O2468   1.373       .  S
C2464      C2465   1.405       .  A
C2465      H2469   1.083       .  S
C2465      C2466   1.407       .  A
C2466      O2470   1.371       .  S
O2468      H2472   0.992       .  S
O2470      H2471   0.992       .  S
C2473      C2474   1.405       .  A
C2473      C2478   1.412       .  A
C2474      H2479   1.083       .  S
C2474      C2475   1.406       .  A
C2475      C2476   1.409       .  A
C2475      O2480   1.372       .  S
C2476      C2477   1.401       .  A
C2477      H2481   1.084       .  S
C2477      C2478   1.395       .  A
C2478      O2482   1.372       .  S
O2480      H2484   0.992       .  S
O2482      H2483   0.992       .  S
C2485      C2486   1.404       .  A
C2485      C2490   1.408       .  A
C2486      H2491   1.084       .  S
C2486      C2487   1.396       .  A
C2487      C2488   1.406       .  A
C2487      O2492   1.372       .  S
C2488      C2489   1.406       .  A
C2489      H2493   1.084       .  S
C2489      C2490   1.405       .  A
C2490      O2494   1.371       .  S
O2492      H2496   0.992       .  S
O2494      H2495   0.992       .  S
