geometry optimzed in LAMMPS
_audit_creation_date              2020-11-30 
_audit_creation_method            'lammps2cif' 
_symmetry_space_group_name_H-M    'P1' 
_symmetry_Int_Tables_number       1 
_symmetry_cell_setting            triclinic 
loop_ 
_symmetry_equiv_pos_as_xyz 
  x,y,z 
_cell_length_a                    42.45255321 
_cell_length_b                    42.26900880567143 
_cell_length_c                    41.94271320813378 
_cell_angle_alpha                 90.50040787557447 
_cell_angle_beta                  89.99526691523037 
_cell_angle_gamma                 90.48650784277051 
loop_ 
_atom_site_label 
_atom_site_type_symbol 
_atom_site_fract_x 
_atom_site_fract_y 
_atom_site_fract_z 
_atom_site_charge 
O1          O  0.17607484  0.33031143  0.37384599    -0.82100
O2          O  0.17338992  0.42629683  0.38061726    -0.82200
O3          O  0.13760389  0.35030210  0.30669501    -0.82200
O4          O  0.12861008  0.40370931  0.44282568    -0.82100
O5          O  0.17877583  0.37520022  0.32829166    -0.82200
O6          O  0.17250588  0.38128354  0.42503185    -0.82200
O7          O  0.12867084  0.44460523  0.40072128    -0.82100
O8          O  0.13534656  0.30918772  0.34798362    -0.82200
C9          C  0.16418732  0.30844250  0.35613856     1.07600
C10         C  0.15826235  0.44677992  0.39729152     1.07400
C11         C  0.16678617  0.35695408  0.30661990     1.07600
C12         C  0.15785373  0.39838849  0.44563323     1.07500
O13         O  0.11543624  0.35059347  0.44195839    -0.82100
O14         O  0.12244894  0.40251188  0.30476546    -0.82200
O15         O  0.07529681  0.32830057  0.37329479    -0.82200
O16         O  0.07344632  0.42207228  0.36908778    -0.82100
O17         O  0.11667982  0.44290726  0.34726515    -0.82200
O18         O  0.11645218  0.30951041  0.39964503    -0.82100
O19         O  0.07266458  0.37192214  0.42128583    -0.82100
O20         O  0.07859503  0.37924317  0.32153335    -0.82200
Co21       Co  0.14541214  0.34619691  0.40662468     1.51500
Co22       Co  0.14795306  0.40847804  0.34379454     1.51700
Co23       Co  0.10613765  0.34509009  0.34078568     1.51600
Co24       Co  0.10091970  0.40714626  0.40496010     1.51500
O25         O  0.12506916  0.37674284  0.37402650    -1.44100
C26         C  0.08613492  0.35550417  0.44296505     1.07500
C27         C  0.09325262  0.39705695  0.30154346     1.07600
C28         C  0.08756278  0.30762466  0.39173584     1.07500
C29         C  0.08710007  0.44340674  0.35225286     1.07500
O30         O  0.37056950  0.17105892  0.32549707    -0.82100
O31         O  0.37798432  0.17258768  0.42155828    -0.82200
O32         O  0.30558113  0.12570129  0.34785017    -0.82200
O33         O  0.44347666  0.12858925  0.39908653    -0.82100
O34         O  0.32479020  0.16967619  0.37003556    -0.82200
O35         O  0.42373396  0.17132282  0.37641367    -0.82200
O36         O  0.40221552  0.13031608  0.44085819    -0.82100
O37         O  0.34715633  0.12761771  0.30620736    -0.82200
C38         C  0.35262567  0.15715454  0.30477190     1.07600
C39         C  0.39597741  0.15958737  0.44245475     1.07400
C40         C  0.30343690  0.15517027  0.35341265     1.07600
C41         C  0.44529175  0.15789135  0.39305071     1.07500
O42         O  0.44108262  0.11330409  0.34606489    -0.82100
O43         O  0.30867828  0.11209515  0.40104057    -0.82200
O44         O  0.37801144  0.07039080  0.32474856    -0.82200
O45         O  0.37205764  0.07196700  0.42324644    -0.82100
O46         O  0.34983672  0.11548826  0.44235804    -0.82200
O47         O  0.39953133  0.11400082  0.30507923    -0.82100
O48         O  0.42266303  0.07059773  0.37076787    -0.82100
O49         O  0.32752404  0.06916090  0.37691931    -0.82200
Co50       Co  0.40536774  0.14273420  0.34180026     1.51500
Co51       Co  0.34370160  0.14278124  0.40513863     1.51700
Co52       Co  0.34315163  0.09813565  0.34233031     1.51600
Co53       Co  0.40650559  0.10005456  0.40506623     1.51500
O54         O  0.37468220  0.12088634  0.37360934    -1.44100
C55         C  0.44325536  0.08418763  0.35289527     1.07500
C56         C  0.30685724  0.08273854  0.39461986     1.07600
C57         C  0.39492448  0.08438281  0.30362030     1.07500
C58         C  0.35516565  0.08616482  0.44435207     1.07500
O59         O  0.32570389  0.36781128  0.17318179    -0.82100
O60         O  0.42290726  0.37529518  0.17637022    -0.82200
O61         O  0.34925578  0.30306876  0.13161937    -0.82200
O62         O  0.40231549  0.43886718  0.13034062    -0.82100
O63         O  0.37086042  0.32347973  0.17555559    -0.82200
O64         O  0.37826380  0.42089123  0.17376901    -0.82200
O65         O  0.44311214  0.39763385  0.13302159    -0.82100
O66         O  0.30776646  0.34393135  0.12928898    -0.82200
C67         C  0.30512932  0.34998098  0.15884754     1.07600
C68         C  0.44434326  0.39215367  0.16267609     1.07400
C69         C  0.35394297  0.30209589  0.16149835     1.07600
C70         C  0.39593940  0.44159695  0.15972840     1.07500
O71         O  0.34992525  0.43803106  0.11520332    -0.82100
O72         O  0.40214680  0.30293984  0.11896319    -0.82200
O73         O  0.32890969  0.37264071  0.07173157    -0.82200
O74         O  0.42681111  0.36588810  0.07547761    -0.82100
O75         O  0.44418862  0.34426022  0.12024288    -0.82200
O76         O  0.30888048  0.39645039  0.11449334    -0.82100
O77         O  0.37431229  0.41857308  0.07243924    -0.82100
O78         O  0.38092146  0.32122137  0.07438957    -0.82200
Co79       Co  0.34423325  0.40223070  0.14468915     1.51500
Co80       Co  0.40646600  0.33997906  0.14778983     1.51700
Co81       Co  0.34525549  0.33868764  0.10153935     1.51600
Co82       Co  0.40804208  0.40156096  0.10241037     1.51500
O83         O  0.37601678  0.37066239  0.12408643    -1.44100
C84         C  0.35663480  0.43970818  0.08579807     1.07500
C85         C  0.39784179  0.30077286  0.08909390     1.07600
C86         C  0.30779993  0.39028694  0.08485264     1.07500
C87         C  0.44728850  0.34920752  0.09064863     1.07500
C88         C  0.27642750  0.49561874  0.02197079     0.00300
C89         C  0.25211819  0.47223197  0.02253430     0.00300
C90         C  0.22629042  0.47456198  0.00087230     0.00300
C91         C  0.22567572  0.50000636  0.47760276     0.00300
C92         C  0.25080056  0.02246092  0.47655053     0.00300
C93         C  0.27501616  0.02093114  0.99928959     0.00300
C94         C  0.32825907  0.02069194  0.08896575     0.78200
N95         N  0.30509899  0.02021332  0.06684399    -0.80100
C96         C  0.30207171  0.49514075  0.04647389     0.80700
N97         N  0.32185709  0.46974443  0.04905605    -0.80000
C98         C  0.34469128  0.46951912  0.07181352     0.80800
N99         N  0.34767805  0.49539996  0.09109387    -0.81700
C100        C  0.32437461  0.08936522  0.02588792     0.78200
N101        N  0.34449855  0.09222174  0.49965955    -0.80100
C102        C  0.34234504  0.07281638  0.47391456     0.80700
N103        N  0.32029790  0.04944787  0.47403825    -0.80000
C104        C  0.30046533  0.04624467  0.49954500     0.80800
N105        N  0.30226156  0.06606165  0.02555192    -0.81700
C106        C  0.15617121  0.02708450  0.43088982     0.78200
N107        N  0.15216111  0.50088431  0.41110652    -0.80100
C108        C  0.17124405  0.47559453  0.41209210     0.80700
N109        N  0.19546367  0.47574737  0.43305931    -0.80000
C110        C  0.19979519  0.50094587  0.45334898     0.80800
N111        N  0.18058923  0.02694609  0.45190103    -0.81700
C112        C  0.22751727  0.08871846  0.42296056     0.78200
N113        N  0.22728509  0.06770386  0.44726042    -0.80100
C114        C  0.25149063  0.04670386  0.45069598     0.80700
N115        N  0.27647905  0.04775422  0.43005036    -0.80000
C116        C  0.27711654  0.06899536  0.40606644     0.80800
N117        N  0.25217963  0.08840026  0.40247861    -0.81700
C118        C  0.22745988  0.41775675  0.08768533     0.78200
N119        N  0.25257947  0.39823720  0.08876826    -0.80100
C120        C  0.27843862  0.40224218  0.07025106     0.80700
N121        N  0.27831858  0.42617012  0.04869703    -0.80000
C122        C  0.25290596  0.44600959  0.04658038     0.80800
N123        N  0.22791509  0.44192954  0.06674399    -0.81700
C124        C  0.15725912  0.42583630  0.02770421     0.78200
N125        N  0.15203136  0.40975689  0.50111258    -0.80100
C126        C  0.17103927  0.41140865  0.47531128     0.80700
N127        N  0.19564238  0.43194548  0.47580275    -0.80000
C128        C  0.20032410  0.45038435  0.00154144     0.80800
N129        N  0.18097009  0.44768241  0.02760894    -0.81700
C130        C  0.02289422  0.25098296  0.47206153     0.00300
C131        C  0.49968008  0.22577371  0.47255791     0.00300
C132        C  0.47692597  0.22438523  0.49772771     0.00300
C133        C  0.47819945  0.24624172  0.02322796     0.00300
C134        C  0.50169055  0.27062225  0.02292058     0.00300
C135        C  0.02366400  0.27378110  0.49737935     0.00300
C136        C  0.07218548  0.34320668  0.47252652     0.78200
N137        N  0.05033449  0.31965924  0.47236988    -0.80100
C138        C  0.04814279  0.29935644  0.49753521     0.80700
N139        N  0.06829559  0.30134955  0.02241977    -0.80000
C140        C  0.08957230  0.32543873  0.02330082     0.80800
N141        N  0.09052958  0.34564194  0.99841237    -0.81700
C142        C  0.07246248  0.27801023  0.40251401     0.78200
N143        N  0.05049433  0.27770946  0.42626175    -0.80100
C144        C  0.04741157  0.25193865  0.44578520     0.80700
N145        N  0.06731992  0.22695854  0.44160266    -0.80000
C146        C  0.08869909  0.22671816  0.41752296     0.80800
N147        N  0.09045367  0.25200042  0.39804278    -0.81700
C148        C  0.47694700  0.33563525  0.07793071     0.78200
N149        N  0.50236962  0.33718614  0.09761930    -0.80100
C150        C  0.02807790  0.31863205  0.09333767     0.80700
N151        N  0.02776477  0.29700198  0.06913516    -0.80000
C152        C  0.50244973  0.29485895  0.04923171     0.80800
N153        N  0.47739175  0.31464636  0.05334398    -0.81700
C154        C  0.41143069  0.27147350  0.07569044     0.78200
N155        N  0.43362731  0.27123475  0.05239311    -0.80100
C156        C  0.45338717  0.24591831  0.04894458     0.80700
N157        N  0.45006880  0.22040326  0.06880522    -0.80000
C158        C  0.42732715  0.22021613  0.09168545     0.80800
N159        N  0.40885003  0.24595782  0.09475513    -0.81700
C160        C  0.02663482  0.15950442  0.42153546     0.78200
N161        N  0.02549769  0.18210233  0.44455399    -0.80100
C162        C  0.99976403  0.20105739  0.44748299     0.80700
N163        N  0.47453424  0.19592133  0.42767685    -0.80000
C164        C  0.47477510  0.17262790  0.40516596     0.80800
N165        N  0.00114489  0.15519302  0.40239221    -0.81700
C166        C  0.40837716  0.17394139  0.47219830     0.78200
N167        N  0.43167412  0.19613968  0.47219343    -0.80100
C168        C  0.45178253  0.19909552  0.49764240     0.80700
N169        N  0.44842095  0.17823777  0.02365405    -0.80000
C170        C  0.42426126  0.15695497  0.02412487     0.80800
N171        N  0.40518237  0.15542728  0.49825088    -0.81700
C172        C  0.27276944  0.22284101  0.25042590     0.00300
C173        C  0.24968775  0.22401013  0.27544996     0.00300
C174        C  0.22755375  0.24962190  0.27695574     0.00300
C175        C  0.22744216  0.27296147  0.25229300     0.00300
C176        C  0.25005594  0.27136974  0.22694004     0.00300
C177        C  0.27320521  0.24684754  0.22649501     0.00300
C178        C  0.27402376  0.16898120  0.34057161     0.78200
N179        N  0.24758804  0.15085160  0.34308267    -0.80100
C180        C  0.22160092  0.15572019  0.32497399     0.80700
N181        N  0.22259992  0.17906508  0.30286819    -0.80000
C182        C  0.24873721  0.19812045  0.30000830     0.80800
N183        N  0.27419690  0.19310359  0.31935791    -0.81700
C184        C  0.16410156  0.32824005  0.22607742     0.78200
N185        N  0.16421555  0.34883941  0.25097750    -0.80100
C186        C  0.18208894  0.34494455  0.27735022     0.80700
N187        N  0.20228428  0.32013375  0.27781962    -0.80000
C188        C  0.20364428  0.29925538  0.25259853     0.76600
N189        N  0.18380257  0.30310011  0.22707924    -0.81700
C190        C  0.34117773  0.27277370  0.17563453     0.78200
N191        N  0.34467116  0.24672250  0.15709412    -0.80100
C192        C  0.32594248  0.22084882  0.15956812     0.80700
N193        N  0.30243754  0.22113576  0.18157268    -0.80000
C194        C  0.29856807  0.24685610  0.20134247     0.80800
N195        N  0.31823553  0.27258579  0.19823249    -0.81700
C196        C  0.22393555  0.31967567  0.15696980     0.78200
N197        N  0.24995095  0.33812823  0.15305432    -0.80100
C198        C  0.27554286  0.33663610  0.17234637     0.80700
N199        N  0.27509811  0.31551497  0.19658103    -0.80000
C200        C  0.24971979  0.29565408  0.20073956     0.80800
N201        N  0.22415621  0.29797643  0.18078204    -0.81700
C202        C  0.17984784  0.27884119  0.34694401     0.78200
N203        N  0.20098748  0.27794470  0.32248507    -0.80100
C204        C  0.20394393  0.25128066  0.30391403     0.80700
N205        N  0.18470268  0.22598596  0.30978139    -0.80000
C206        C  0.16437836  0.22627481  0.33469704     0.80800
N207        N  0.16270710  0.25245678  0.35332821    -0.81700
C208        C  0.33952203  0.17090752  0.27543205     0.78200
N209        N  0.34212185  0.15211881  0.24933716    -0.80100
C210        C  0.32348691  0.15484229  0.22339866     0.80700
N211        N  0.30064029  0.17732500  0.22393163    -0.80000
C212        C  0.29736186  0.19708836  0.24997783     0.80800
N213        N  0.31720401  0.19375857  0.27554038    -0.81700
C214        C  0.02394730  0.49851024  0.27199476     0.00300
C215        C  0.02489839  0.47495536  0.24739815     0.00300
C216        C  0.00055147  0.47400592  0.22394979     0.00300
C217        C  0.47648094  0.49788141  0.22403528     0.00300
C218        C  0.47644423  0.02132761  0.24826587     0.00300
C219        C  0.00020524  0.02238745  0.27239613     0.00300
C220        C  0.02354665  0.08973173  0.32630715     0.78200
N221        N  0.99813801  0.09048277  0.34580757    -0.80100
C222        C  0.47312225  0.07073872  0.34159737     0.80700
N223        N  0.47402919  0.04840170  0.31821634    -0.80000
C224        C  0.99943133  0.04701495  0.29838712     0.80800
N225        N  0.02400403  0.06796193  0.30229306    -0.81700
C226        C  0.08841465  0.02443969  0.32756946     0.78200
N227        N  0.06760850  0.02452920  0.30308432    -0.80100
C228        C  0.04801642  0.49850852  0.29788527     0.80700
N229        N  0.05069883  0.47275289  0.31727836    -0.80000
C230        C  0.07276108  0.47252640  0.34062274     0.80800
N231        N  0.09107189  0.49840687  0.34480943    -0.81700
C232        C  0.08044378  0.41121780  0.27226538     0.78200
N233        N  0.05570415  0.43135608  0.27191531    -0.80100
C234        C  0.05127508  0.45113044  0.24658542     0.80700
N235        N  0.07119705  0.44919154  0.22077871    -0.80000
C236        C  0.09563349  0.42847695  0.22073409     0.80800
N237        N  0.10010779  0.41073244  0.24695486    -0.81700
C238        C  0.42449091  0.08753064  0.22304451     0.78200
N239        N  0.44773453  0.06569295  0.22308769    -0.80100
C240        C  0.45102601  0.04578061  0.24848543     0.80700
N241        N  0.43099002  0.04834975  0.27403965    -0.80000
C242        C  0.40806339  0.07056533  0.27422463     0.80800
N243        N  0.40529549  0.08940701  0.24860973    -0.81700
C244        C  0.42568465  0.02251738  0.15651174     0.78200
N245        N  0.40605860  0.49719294  0.15403288    -0.80100
C246        C  0.40867487  0.47158525  0.17319388     0.80700
N247        N  0.43139666  0.47205578  0.19593129    -0.80000
C248        C  0.45154907  0.49740890  0.19877677     0.80800
N249        N  0.44882894  0.02223679  0.17880010    -0.81700
C250        C  0.47399135  0.40396476  0.17688157     0.78200
N251        N  0.00004340  0.39945480  0.15776150    -0.80100
C252        C  0.02562977  0.41883666  0.15933780     0.80700
N253        N  0.02527414  0.44349338  0.18011691    -0.80000
C254        C  0.99998522  0.44798251  0.19973282     0.80800
N255        N  0.47434994  0.42839455  0.19804680    -0.81700
O256        O  0.12025771  0.07302658  0.32765962    -0.82100
O257        O  0.12952305  0.18007475  0.33073311    -0.82200
O258        O  0.05601632  0.09819640  0.36891026    -0.82200
O259        O  0.18793934  0.15331162  0.36797206    -0.82100
O260        O  0.07142174  0.12330828  0.32482104    -0.82200
O261        O  0.17193626  0.12475299  0.32562448    -0.82200
O262        O  0.15873282  0.18922061  0.37463624    -0.82100
O263        O  0.09751460  0.05452927  0.37164538    -0.82200
C264        C  0.10209832  0.05307510  0.34180456     1.07600
C265        C  0.14967976  0.19710326  0.34667832     1.07400
C266        C  0.05245717  0.10441842  0.33952508     1.07600
C267        C  0.19155087  0.14438608  0.33894827     1.07500
O268        O  0.19410658  0.09783289  0.38159172    -0.82100
O269        O  0.06216574  0.15510205  0.38038161    -0.82200
O270        O  0.12652739  0.07678320  0.42815026    -0.82200
O271        O  0.12323763  0.18043815  0.42157876    -0.82100
O272        O  0.09437142  0.18919014  0.37773444    -0.82200
O273        O  0.15093986  0.05570708  0.38575915    -0.82100
O274        O  0.18093203  0.12351388  0.42616926    -0.82100
O275        O  0.07586937  0.12921557  0.42453642    -0.82200
Co276      Co  0.15638530  0.08987526  0.35471984     1.51500
Co277      Co  0.10046311  0.14887802  0.35353664     1.51700
Co278      Co  0.09189317  0.09193508  0.39872665     1.51600
Co279      Co  0.15158613  0.14883172  0.39815767     1.51500
O280        O  0.12503015  0.11832748  0.37643003    -1.44100
C281        C  0.19876345  0.10403547  0.41085036     1.07500
C282        C  0.05684704  0.14745622  0.40932059     1.07600
C283        C  0.14497805  0.05602232  0.41554597     1.07500
C284        C  0.10322044  0.19721639  0.40582665     1.07500
O285        O  0.38309471  0.05413431  0.15038149    -0.82100
O286        O  0.38353682  0.18942838  0.09873306    -0.82200
O287        O  0.42522930  0.12643987  0.07468221    -0.82200
O288        O  0.42499689  0.11815649  0.17316232    -0.82100
O289        O  0.38169886  0.14855078  0.05616733    -0.82200
O290        O  0.38156029  0.09557507  0.19207658    -0.82200
O291        O  0.42620905  0.17002541  0.12194614    -0.82100
O292        O  0.42618832  0.07342787  0.12692563    -0.82200
C293        C  0.41229474  0.05227458  0.14420815     1.07600
C294        C  0.41292727  0.19089907  0.10434182     1.07400
C295        C  0.41100570  0.14351881  0.05383514     1.07600
C296        C  0.41096122  0.10071314  0.19382878     1.07500
O297        O  0.32451418  0.12412962  0.17241822    -0.82100
O298        O  0.32500314  0.11876992  0.07685741    -0.82200
O299        O  0.37007938  0.05352995  0.09685972    -0.82200
O300        O  0.36909054  0.18986013  0.15173853    -0.82100
O301        O  0.32584707  0.17046586  0.12899015    -0.82200
O302        O  0.32628245  0.07126584  0.11955108    -0.82100
O303        O  0.36721893  0.14795991  0.19244804    -0.82100
O304        O  0.36775036  0.09573572  0.05679937    -0.82200
Co305      Co  0.35354229  0.08984019  0.15509400     1.51500
Co306      Co  0.35378493  0.15335688  0.09363270     1.51700
Co307      Co  0.39762966  0.09095128  0.09238841     1.51600
Co308      Co  0.39717055  0.15302533  0.15641591     1.51500
O309        O  0.37554139  0.12172844  0.12436848    -1.44100
C310        C  0.33779840  0.14207279  0.19369152     1.07500
C311        C  0.33844883  0.10142355  0.05556902     1.07600
C312        C  0.34092542  0.05056727  0.10238760     1.07500
C313        C  0.33974460  0.19152682  0.14644241     1.07500
O314        O  0.17328190  0.32039737  0.12657981    -0.82100
O315        O  0.07889323  0.32025441  0.12351824    -0.82200
O316        O  0.15326750  0.36963292  0.19355039    -0.82200
O317        O  0.09968587  0.36728098  0.05599716    -0.82100
O318        O  0.13205053  0.32472335  0.17615708    -0.82200
O319        O  0.12051246  0.32300207  0.07378300    -0.82200
O320        O  0.05946770  0.36231188  0.09858920    -0.82100
O321        O  0.19335599  0.36330866  0.15085696    -0.82200
C322        C  0.19440887  0.33379693  0.14461432     1.07600
C323        C  0.05789029  0.33307879  0.10539941     1.07400
C324        C  0.14915747  0.34016834  0.19656052     1.07600
C325        C  0.10382513  0.33787050  0.05311947     1.07500
O326        O  0.15219739  0.38137625  0.05766538    -0.82100
O327        O  0.10096562  0.38343854  0.19124155    -0.82200
O328        O  0.17763601  0.42056894  0.11837091    -0.82200
O329        O  0.07603506  0.42060460  0.12989392    -0.82100
O330        O  0.05803831  0.37667682  0.15194866    -0.82200
O331        O  0.19497895  0.37584233  0.09733586    -0.82100
O332        O  0.12805241  0.42359486  0.07848236    -0.82100
O333        O  0.12552977  0.42525186  0.17007755    -0.82200
Co334      Co  0.15657063  0.34982197  0.09226428     1.51500
Co335      Co  0.09616537  0.35080824  0.15730526     1.51700
Co336      Co  0.15900134  0.39481526  0.15465420     1.51600
Co337      Co  0.09428190  0.39365650  0.09430014     1.51500
O338        O  0.12650229  0.37213545  0.12463180    -1.44100
C339        C  0.14586455  0.41082312  0.05712923     1.07500
C340        C  0.10731735  0.41298288  0.19138950     1.07600
C341        C  0.19812204  0.40527116  0.10181132     1.07500
C342        C  0.05514843  0.40585427  0.14644881     1.07500
O343        O  0.17465401  0.32914999  0.87325367    -0.82100
O344        O  0.17433255  0.42455219  0.88050691    -0.82200
O345        O  0.13621085  0.35037788  0.80643629    -0.82200
O346        O  0.12899188  0.40277686  0.94313204    -0.82100
O347        O  0.17801506  0.37405408  0.82808139    -0.82200
O348        O  0.17239720  0.37968703  0.92501597    -0.82200
O349        O  0.13029034  0.44375220  0.90142909    -0.82100
O350        O  0.13336155  0.30902043  0.84752085    -0.82200
C351        C  0.16226396  0.30775509  0.85531722     1.07600
C352        C  0.15985644  0.44539727  0.89724446     1.07400
C353        C  0.16551484  0.35642424  0.80625493     1.07600
C354        C  0.15815878  0.39702191  0.94573548     1.07500
O355        O  0.11478916  0.34994747  0.94189383    -0.82100
O356        O  0.12213671  0.40291718  0.80512904    -0.82200
O357        O  0.07385286  0.32910790  0.87317251    -0.82200
O358        O  0.07422464  0.42313973  0.86957404    -0.82100
O359        O  0.11795611  0.44314974  0.84805494    -0.82200
O360        O  0.11468199  0.30926130  0.89924878    -0.82100
O361        O  0.07234188  0.37236511  0.92168755    -0.82100
O362        O  0.07794451  0.38031311  0.82195197    -0.82200
Co363      Co  0.14449314  0.34528114  0.90638975     1.51500
Co364      Co  0.14813089  0.40786304  0.84396379     1.51700
Co365      Co  0.10487637  0.34552092  0.84072480     1.51600
Co366      Co  0.10137295  0.40713920  0.90539150     1.51500
O367        O  0.12466171  0.37647104  0.87412802    -1.44100
C368        C  0.08557552  0.35529463  0.94305825     1.07500
C369        C  0.09286325  0.39785429  0.80194340     1.07600
C370        C  0.08577607  0.30793113  0.89123893     1.07500
C371        C  0.08835932  0.44414707  0.85267997     1.07500
O372        O  0.37143197  0.17202675  0.82629104    -0.82100
O373        O  0.37834649  0.17292658  0.92195290    -0.82200
O374        O  0.30557481  0.12735832  0.84843121    -0.82200
O375        O  0.44347042  0.12744179  0.89980063    -0.82100
O376        O  0.32541641  0.17097693  0.87066915    -0.82200
O377        O  0.42457658  0.17069710  0.87741068    -0.82200
O378        O  0.40198468  0.13031344  0.94128518    -0.82100
O379        O  0.34707522  0.12915116  0.80681066    -0.82200
C380        C  0.35318762  0.15859094  0.80548467     1.07600
C381        C  0.39610608  0.15967027  0.94283913     1.07400
C382        C  0.30389603  0.15686287  0.85399733     1.07600
C383        C  0.44588833  0.15670818  0.89389987     1.07500
O384        O  0.44054984  0.11245456  0.84670082    -0.82100
O385        O  0.30830577  0.11332991  0.90148307    -0.82200
O386        O  0.37726113  0.07127006  0.82476376    -0.82200
O387        O  0.37083485  0.07238842  0.92366528    -0.82100
O388        O  0.34943895  0.11622945  0.94293157    -0.82200
O389        O  0.39924976  0.11479051  0.80550416    -0.82100
O390        O  0.42136784  0.07008317  0.87147086    -0.82100
O391        O  0.32671325  0.07030413  0.87712523    -0.82200
Co392      Co  0.40561108  0.14284807  0.84253874     1.51500
Co393      Co  0.34373288  0.14362095  0.90567133     1.51700
Co394      Co  0.34272255  0.09932753  0.84267048     1.51600
Co395      Co  0.40580710  0.09984324  0.90564524     1.51500
O396        O  0.37447723  0.12137302  0.87413870    -1.44100
C397        C  0.44227273  0.08334233  0.85374237     1.07500
C398        C  0.30626164  0.08397015  0.89504825     1.07600
C399        C  0.39438907  0.08526121  0.80378740     1.07500
C400        C  0.35423415  0.08680267  0.94482272     1.07500
O401        O  0.32577909  0.36882090  0.67323074    -0.82100
O402        O  0.42277098  0.37637642  0.67608510    -0.82200
O403        O  0.34922827  0.30425437  0.63109863    -0.82200
O404        O  0.40201867  0.44006588  0.63055013    -0.82100
O405        O  0.37087275  0.32446287  0.67510759    -0.82200
O406        O  0.37813308  0.42181555  0.67395052    -0.82200
O407        O  0.44286996  0.39893349  0.63280079    -0.82100
O408        O  0.30774414  0.34507618  0.62928694    -0.82200
C409        C  0.30517474  0.35108016  0.65885911     1.07600
C410        C  0.44414174  0.39332706  0.66242212     1.07400
C411        C  0.35397627  0.30312793  0.66094716     1.07600
C412        C  0.39568483  0.44262660  0.65996404     1.07500
O413        O  0.34964709  0.43927589  0.61550601    -0.82100
O414        O  0.40208417  0.30432020  0.61834596    -0.82200
O415        O  0.32851987  0.37418131  0.57183686    -0.82200
O416        O  0.42632970  0.36751609  0.57508045    -0.82100
O417        O  0.44390470  0.34570134  0.61966175    -0.82200
O418        O  0.30864621  0.39768014  0.61485260    -0.82100
O419        O  0.37391295  0.41994630  0.57260401    -0.82100
O420        O  0.38060870  0.32273090  0.57393544    -0.82200
Co421      Co  0.34409554  0.40335612  0.64486714     1.51500
Co422      Co  0.40636005  0.34119116  0.64736070     1.51700
Co423      Co  0.34506015  0.34005556  0.60131566     1.51600
Co424      Co  0.40771927  0.40296759  0.60235053     1.51500
O425        O  0.37582031  0.37193258  0.62395195    -1.44100
C426        C  0.35629018  0.44101241  0.58608810     1.07500
C427        C  0.39753950  0.30219121  0.58851382     1.07600
C428        C  0.30742349  0.39166633  0.58520303     1.07500
C429        C  0.44683449  0.35073864  0.59006671     1.07500
C430        C  0.27621402  0.49668921  0.52226640     0.00300
C431        C  0.25195695  0.47328425  0.52267541     0.00300
C432        C  0.22630813  0.47542916  0.50081107     0.00300
C433        C  0.22557877  0.49933334  0.97777649     0.00300
C434        C  0.24998990  0.02266435  0.97670036     0.00300
C435        C  0.27560912  0.02116676  0.49934402     0.00300
C436        C  0.32777452  0.02208273  0.58993304     0.78200
N437        N  0.30485303  0.02159092  0.56752012    -0.80100
C438        C  0.30174376  0.49630454  0.54686021     0.80700
N439        N  0.32150768  0.47093224  0.54945765    -0.80000
C440        C  0.34435699  0.47075466  0.57215922     0.80800
N441        N  0.34742337  0.49664309  0.59137748    -0.81700
C442        C  0.32556853  0.08937466  0.52542862     0.78200
N443        N  0.34301553  0.09279130  0.00001195    -0.80100
C444        C  0.34110713  0.07346710  0.97422025     0.80700
N445        N  0.31948197  0.04972051  0.97426693    -0.80000
C446        C  0.29971839  0.04612381  0.99976802     0.80800
N447        N  0.30312565  0.06639899  0.52514886    -0.81700
C448        C  0.15833130  0.02622038  0.92680670     0.78200
N449        N  0.15510038  0.50002574  0.90814871    -0.80100
C450        C  0.17352989  0.47440716  0.91067164     0.80700
N451        N  0.19652236  0.47448319  0.93297802    -0.80000
C452        C  0.20020987  0.49987243  0.95309598     0.80800
N453        N  0.18110226  0.02612030  0.94959102    -0.81700
C454        C  0.22664094  0.08973140  0.92319262     0.78200
N455        N  0.22619587  0.06836538  0.94734473    -0.80100
C456        C  0.25056422  0.04741854  0.95094887     0.80700
N457        N  0.27571375  0.04883326  0.93049363    -0.80000
C458        C  0.27651057  0.07035384  0.90672231     0.80800
N459        N  0.25163524  0.08979088  0.90318070    -0.81700
C460        C  0.22722062  0.41974147  0.58839801     0.78200
N461        N  0.25229876  0.40017216  0.58964768    -0.80100
C462        C  0.27803710  0.40376474  0.57085914     0.80700
N463        N  0.27790693  0.42736192  0.54899190    -0.80000
C464        C  0.25260394  0.44729991  0.54682848     0.80800
N465        N  0.22766781  0.44359497  0.56711825    -0.81700
C466        C  0.15689411  0.42753894  0.52763423     0.78200
N467        N  0.15272851  0.40788627  0.00124913    -0.80100
C468        C  0.17162818  0.40980391  0.97540391     0.80700
N469        N  0.19585796  0.43081224  0.97580988    -0.80000
C470        C  0.20030065  0.45142886  0.50154053     0.80800
N471        N  0.18091246  0.44900259  0.52756641    -0.81700
C472        C  0.02261760  0.24983460  0.97148261     0.00300
C473        C  0.50023699  0.22447556  0.97308993     0.00300
C474        C  0.47759515  0.22302403  0.99835134     0.00300
C475        C  0.47765503  0.24752382  0.52273059     0.00300
C476        C  0.50136161  0.27172421  0.52274993     0.00300
C477        C  0.02368346  0.27245055  0.99693532     0.00300
C478        C  0.07160479  0.34262515  0.97253863     0.78200
N479        N  0.05000167  0.31880951  0.97214849    -0.80100
C480        C  0.04809880  0.29813028  0.99706714     0.80700
N481        N  0.06822581  0.30275570  0.52295897    -0.80000
C482        C  0.08968874  0.32669450  0.52361655     0.80800
N483        N  0.09101557  0.34647559  0.49843356    -0.81700
C484        C  0.07028794  0.27820562  0.90110977     0.78200
N485        N  0.04899983  0.27753230  0.92549751    -0.80100
C486        C  0.04632597  0.25137558  0.94455085     0.80700
N487        N  0.06605391  0.22650775  0.93938371    -0.80000
C488        C  0.08665100  0.22659740  0.91468563     0.80800
N489        N  0.08789704  0.25212299  0.89548721    -0.81700
C490        C  0.47644437  0.33728463  0.57720741     0.78200
N491        N  0.50184525  0.33908256  0.59686256    -0.80100
C492        C  0.02744550  0.32110994  0.59290166     0.80700
N493        N  0.02708743  0.29923625  0.56894789    -0.80000
C494        C  0.50195594  0.29612542  0.54900801     0.80800
N495        N  0.47687232  0.31594953  0.55290234    -0.81700
C496        C  0.41087996  0.27281830  0.57503454     0.78200
N497        N  0.43307472  0.27254417  0.55175272    -0.80100
C498        C  0.45283034  0.24723090  0.54835648     0.80700
N499        N  0.44959276  0.22178480  0.56829946    -0.80000
C500        C  0.42685849  0.22160393  0.59116006     0.80800
N501        N  0.40829101  0.24730563  0.59413747    -0.81700
C502        C  0.02689717  0.15758092  0.92160838     0.78200
N503        N  0.02588845  0.18029763  0.94456382    -0.80100
C504        C  0.00012932  0.19927721  0.94756893     0.80700
N505        N  0.47536768  0.19442633  0.92844470    -0.80000
C506        C  0.47548965  0.17086562  0.90629450     0.80800
N507        N  0.00119778  0.15320307  0.90268014    -0.81700
C508        C  0.40843599  0.17385142  0.97258485     0.78200
N509        N  0.43215546  0.19554779  0.97266360    -0.80100
C510        C  0.45228548  0.19798861  0.99811126     0.80700
N511        N  0.44827055  0.17940402  0.52328480    -0.80000
C512        C  0.42458914  0.15758047  0.52386592     0.80800
N513        N  0.40479440  0.15535404  0.99855836    -0.81700
C514        C  0.27363649  0.22457388  0.75074812     0.00300
C515        C  0.25038435  0.22561377  0.77558171     0.00300
C516        C  0.22734131  0.25041691  0.77626358     0.00300
C517        C  0.22709496  0.27358388  0.75144334     0.00300
C518        C  0.25002222  0.27227203  0.72638422     0.00300
C519        C  0.27357264  0.24811421  0.72634340     0.00300
C520        C  0.27467059  0.17109904  0.84126741     0.78200
N521        N  0.24816097  0.15312907  0.84383431    -0.80100
C522        C  0.22240566  0.15778355  0.82538969     0.80700
N523        N  0.22355037  0.18091129  0.80314443    -0.80000
C524        C  0.24960577  0.19998711  0.80035537     0.80800
N525        N  0.27503546  0.19505964  0.81981730    -0.81700
C526        C  0.16305182  0.32826401  0.72535679     0.78200
N527        N  0.16252727  0.34833813  0.75062185    -0.80100
C528        C  0.18051100  0.34447288  0.77689302     0.80700
N529        N  0.20122527  0.32013625  0.77709846    -0.80000
C530        C  0.20303880  0.29962877  0.75164449     0.76600
N531        N  0.18329907  0.30352360  0.72603312    -0.81700
C532        C  0.34114613  0.27380163  0.67495590     0.78200
N533        N  0.34436476  0.24778933  0.65627994    -0.80100
C534        C  0.32568102  0.22189474  0.65897645     0.80700
N535        N  0.30241080  0.22222162  0.68124677    -0.80000
C536        C  0.29876267  0.24797701  0.70104555     0.80800
N537        N  0.31846752  0.27363968  0.69779449    -0.81700
C538        C  0.22393149  0.32125661  0.65683538     0.78200
N539        N  0.24995306  0.33972667  0.65312815    -0.80100
C540        C  0.27558060  0.33788856  0.67232699     0.80700
N541        N  0.27514578  0.31646349  0.69626832    -0.80000
C542        C  0.24974468  0.29662895  0.70024885     0.80800
N543        N  0.22416203  0.29923312  0.68035068    -0.81700
C544        C  0.17747117  0.27824194  0.84517161     0.78200
N545        N  0.19948225  0.27773111  0.82153466    -0.80100
C546        C  0.20287338  0.25144944  0.80248899     0.80700
N547        N  0.18333218  0.22605203  0.80720900    -0.80000
C548        C  0.16205601  0.22601776  0.83136698     0.80800
N549        N  0.15983104  0.25193693  0.85026491    -0.81700
C550        C  0.34048428  0.17268604  0.77605994     0.78200
N551        N  0.34315843  0.15397815  0.74988786    -0.80100
C552        C  0.32448579  0.15670629  0.72394952     0.80700
N553        N  0.30168766  0.17919530  0.72448085    -0.80000
C554        C  0.29840284  0.19897485  0.75047148     0.80800
N555        N  0.31814312  0.19556020  0.77613324    -0.81700
C556        C  0.02333599  0.49863407  0.77286466     0.00300
C557        C  0.02453565  0.47553128  0.74795713     0.00300
C558        C  0.00037133  0.47488454  0.72439104     0.00300
C559        C  0.47593589  0.49849106  0.72461504     0.00300
C560        C  0.47593286  0.02192339  0.74886888     0.00300
C561        C  0.99876410  0.02192899  0.77325874     0.00300
C562        C  0.02214889  0.08887704  0.82673585     0.78200
N563        N  0.99696190  0.08953491  0.84660029    -0.80100
C564        C  0.47212533  0.06951250  0.84304016     0.80700
N565        N  0.47294474  0.04752990  0.81934703    -0.80000
C566        C  0.99793816  0.04625415  0.79914661     0.80800
N567        N  0.02240608  0.06721713  0.80276553    -0.81700
C568        C  0.09066712  0.02488555  0.82382352     0.78200
N569        N  0.06761453  0.02496994  0.80143979    -0.80100
C570        C  0.04792124  0.49894572  0.79829699     0.80700
N571        N  0.05124115  0.47336268  0.81787330    -0.80000
C572        C  0.07455676  0.47315107  0.83997293     0.80800
N573        N  0.09353611  0.49871701  0.84262285    -0.81700
C574        C  0.08022557  0.41210000  0.77268641     0.78200
N575        N  0.05536492  0.43204592  0.77231199    -0.80100
C576        C  0.05090836  0.45181039  0.74701545     0.80700
N577        N  0.07085105  0.45002168  0.72123993    -0.80000
C578        C  0.09537950  0.42942896  0.72118853     0.80800
N579        N  0.09992647  0.41169397  0.74740433    -0.81700
C580        C  0.42477242  0.08884011  0.72343317     0.78200
N581        N  0.44782372  0.06675265  0.72357083    -0.80100
C582        C  0.45077284  0.04670123  0.74895489     0.80700
N583        N  0.43053344  0.04928873  0.77432183    -0.80000
C584        C  0.40773313  0.07161884  0.77440192     0.80800
N585        N  0.40539056  0.09069450  0.74888132    -0.81700
C586        C  0.42534772  0.02363249  0.65709818     0.78200
N587        N  0.40590640  0.49811961  0.65435650    -0.80100
C588        C  0.40833982  0.47252733  0.67353891     0.80700
N589        N  0.43093776  0.47290899  0.69637883    -0.80000
C590        C  0.45116887  0.49816525  0.69926202     0.80800
N591        N  0.44861401  0.02326181  0.67923687    -0.81700
C592        C  0.47372283  0.40518863  0.67663000     0.78200
N593        N  0.99991713  0.40131410  0.65737671    -0.80100
C594        C  0.02545194  0.42080255  0.65906719     0.80700
N595        N  0.02508728  0.44514775  0.68017982    -0.80000
C596        C  0.99988912  0.44919491  0.69999167     0.80800
N597        N  0.47399452  0.42923079  0.69820177    -0.81700
O598        O  0.12195791  0.07397941  0.82467933    -0.82100
O599        O  0.12774193  0.17921383  0.82789014    -0.82200
O600        O  0.05595928  0.09690654  0.86821552    -0.82200
O601        O  0.18792144  0.15484812  0.86765018    -0.82100
O602        O  0.06982542  0.12236117  0.82384739    -0.82200
O603        O  0.17297304  0.12665529  0.82469202    -0.82200
O604        O  0.15689227  0.18932963  0.87159381    -0.82100
O605        O  0.09872004  0.05464623  0.86819873    -0.82200
C606        C  0.10365656  0.05375853  0.83834269     1.07600
C607        C  0.14782851  0.19661391  0.84347318     1.07400
C608        C  0.05134334  0.10346953  0.83911733     1.07600
C609        C  0.19228332  0.14612107  0.83868381     1.07500
O610        O  0.19430134  0.09906467  0.88080990    -0.82100
O611        O  0.06184751  0.15371437  0.87988495    -0.82200
O612        O  0.12821364  0.07569185  0.92520253    -0.82200
O613        O  0.12175212  0.18100734  0.91904147    -0.82100
O614        O  0.09272699  0.18886839  0.87507337    -0.82200
O615        O  0.15216561  0.05553037  0.88222062    -0.82100
O616        O  0.17968079  0.12446192  0.92507510    -0.82100
O617        O  0.07652889  0.12748995  0.92355282    -0.82200
Co618      Co  0.15741460  0.09088514  0.85264528     1.51500
Co619      Co  0.09936260  0.14815513  0.85169640     1.51700
Co620      Co  0.09280470  0.09094486  0.89671505     1.51600
Co621      Co  0.15060107  0.14948462  0.89629806     1.51500
O622        O  0.12501859  0.11830579  0.87437072    -1.44100
C623        C  0.19802994  0.10503525  0.91030289     1.07500
C624        C  0.05714417  0.14584033  0.90887088     1.07600
C625        C  0.14651679  0.05517389  0.91200693     1.07500
C626        C  0.10159561  0.19738059  0.90303118     1.07500
O627        O  0.38298003  0.05548814  0.65083711    -0.82100
O628        O  0.38330485  0.19056294  0.59842547    -0.82200
O629        O  0.42562531  0.12731648  0.57471733    -0.82200
O630        O  0.42543163  0.11969310  0.67341047    -0.82100
O631        O  0.38212267  0.14947057  0.55608560    -0.82200
O632        O  0.38197777  0.09711958  0.69233986    -0.82200
O633        O  0.42616123  0.17147800  0.62157820    -0.82100
O634        O  0.42621311  0.07451391  0.62746662    -0.82200
C635        C  0.41216582  0.05344860  0.64472340     1.07600
C636        C  0.41268451  0.19224399  0.60397370     1.07400
C637        C  0.41141872  0.14435855  0.55377095     1.07600
C638        C  0.41138840  0.10220361  0.69410270     1.07500
O639        O  0.32502250  0.12593399  0.67297045    -0.82100
O640        O  0.32551330  0.11928951  0.57629802    -0.82200
O641        O  0.36992230  0.05474792  0.59732239    -0.82200
O642        O  0.36894531  0.19098813  0.65145612    -0.82100
O643        O  0.32580787  0.17133804  0.62856786    -0.82200
O644        O  0.32629104  0.07288301  0.62014037    -0.82100
O645        O  0.36791854  0.14960653  0.69268400    -0.82100
O646        O  0.36855370  0.09651467  0.55669803    -0.82200
Co647      Co  0.35375333  0.09141402  0.65551382     1.51500
Co648      Co  0.35393991  0.15421083  0.59334466     1.51700
Co649      Co  0.39790416  0.09194359  0.59266982     1.51600
Co650      Co  0.39742826  0.15445164  0.65632919     1.51500
O651        O  0.37577822  0.12295168  0.62444538    -1.44100
C652        C  0.33852403  0.14380810  0.69417513     1.07500
C653        C  0.33925728  0.10196293  0.55514806     1.07600
C654        C  0.34073922  0.05201277  0.60300329     1.07500
C655        C  0.33958977  0.19250562  0.64603329     1.07500
O656        O  0.17324206  0.32215104  0.62653713    -0.82100
O657        O  0.07825230  0.32232946  0.62295537    -0.82200
O658        O  0.15292941  0.37028443  0.69336775    -0.82200
O659        O  0.09951285  0.36889867  0.55604412    -0.82100
O660        O  0.13132146  0.32577549  0.67532972    -0.82200
O661        O  0.12048471  0.32473247  0.57404627    -0.82200
O662        O  0.05899835  0.36464405  0.59842241    -0.82100
O663        O  0.19332071  0.36494431  0.65091341    -0.82200
C664        C  0.19441043  0.33546942  0.64455403     1.07600
C665        C  0.05726584  0.33539171  0.60503142     1.07400
C666        C  0.14854597  0.34077764  0.69591628     1.07600
C667        C  0.10375538  0.33945663  0.55334348     1.07500
O668        O  0.15201080  0.38309093  0.55763810    -0.82100
O669        O  0.10073659  0.38453036  0.69143166    -0.82200
O670        O  0.17733907  0.42239708  0.61897334    -0.82200
O671        O  0.07600590  0.42263279  0.62981822    -0.82100
O672        O  0.05790016  0.37872939  0.65188407    -0.82200
O673        O  0.19466018  0.37785455  0.59747231    -0.82100
O674        O  0.12803908  0.42534258  0.57851958    -0.82100
O675        O  0.12527425  0.42647425  0.67059081    -0.82200
Co676      Co  0.15643962  0.35164295  0.59232295     1.51500
Co677      Co  0.09571659  0.35242251  0.65700848     1.51700
Co678      Co  0.15875836  0.39620036  0.65493223     1.51600
Co679      Co  0.09414379  0.39557516  0.59424459     1.51500
O680        O  0.12626040  0.37386529  0.62462606    -1.44100
C681        C  0.14568905  0.41252687  0.55708905     1.07500
C682        C  0.10708355  0.41406355  0.69180963     1.07600
C683        C  0.19780120  0.40723336  0.60226114     1.07500
C684        C  0.05506573  0.40789722  0.64633444     1.07500
O685        O  0.17527836  0.83061514  0.37452912    -0.82100
O686        O  0.17251928  0.92662788  0.38146313    -0.82200
O687        O  0.13711862  0.85078868  0.30715235    -0.82200
O688        O  0.12730927  0.90396400  0.44347331    -0.82100
O689        O  0.17819870  0.87564703  0.32896153    -0.82200
O690        O  0.17133874  0.88167378  0.42587868    -0.82200
O691        O  0.12770271  0.94494898  0.40132359    -0.82100
O692        O  0.13466392  0.80959008  0.34840293    -0.82200
C693        C  0.16348446  0.80883269  0.35661232     1.07600
C694        C  0.15732294  0.94709863  0.39807927     1.07400
C695        C  0.16628780  0.85746903  0.30717085     1.07600
C696        C  0.15657984  0.89883900  0.44636818     1.07500
O697        O  0.11411302  0.85085457  0.44226796    -0.82100
O698        O  0.12204643  0.90304726  0.30527405    -0.82200
O699        O  0.07451801  0.82863736  0.37336066    -0.82200
O700        O  0.07263898  0.92226586  0.36940567    -0.82100
O701        O  0.11591360  0.94325966  0.34783338    -0.82200
O702        O  0.11549648  0.80980884  0.39998223    -0.82100
O703        O  0.07151395  0.87228810  0.42134750    -0.82100
O704        O  0.07810825  0.87967524  0.32169671    -0.82200
Co705      Co  0.14439294  0.84651720  0.40718969     1.51500
Co706      Co  0.14728917  0.90889299  0.34445713     1.51700
Co707      Co  0.10551684  0.84550945  0.34108812     1.51600
Co708      Co  0.09991631  0.90746063  0.40537368     1.51500
O709        O  0.12424771  0.87709912  0.37451025    -1.44100
C710        C  0.08481006  0.85584108  0.44307947     1.07500
C711        C  0.09290657  0.89748001  0.30179930     1.07600
C712        C  0.08668961  0.80787865  0.39176885     1.07500
C713        C  0.08630550  0.94365463  0.35270614     1.07500
O714        O  0.37069388  0.67114188  0.32561198    -0.82100
O715        O  0.37788086  0.67260966  0.42156877    -0.82200
O716        O  0.30542753  0.62603559  0.34788583    -0.82200
O717        O  0.44325645  0.62807587  0.39930468    -0.82100
O718        O  0.32483371  0.66992849  0.37003259    -0.82200
O719        O  0.42373860  0.67095084  0.37672202    -0.82200
O720        O  0.40186988  0.63023395  0.44095782    -0.82100
O721        O  0.34703920  0.62785424  0.30625244    -0.82200
C722        C  0.35266844  0.65736581  0.30485633     1.07600
C723        C  0.39577875  0.65954198  0.44249531     1.07400
C724        C  0.30343062  0.65551928  0.35341684     1.07600
C725        C  0.44519237  0.65739319  0.39338819     1.07500
O726        O  0.44067036  0.61275390  0.34632411    -0.82100
O727        O  0.30837842  0.61234696  0.40103403    -0.82200
O728        O  0.37758307  0.57044929  0.32470718    -0.82200
O729        O  0.37141326  0.57202754  0.42337684    -0.82100
O730        O  0.34942686  0.61569220  0.44241558    -0.82200
O731        O  0.39935818  0.61399823  0.30519941    -0.82100
O732        O  0.42193067  0.57020547  0.37107822    -0.82100
O733        O  0.32713819  0.56937490  0.37688123    -0.82200
Co734      Co  0.40527147  0.64255402  0.34200045     1.51500
Co735      Co  0.34349965  0.64294482  0.40516056     1.51700
Co736      Co  0.34286154  0.59832394  0.34233318     1.51600
Co737      Co  0.40603336  0.59985451  0.40525625     1.51500
O738        O  0.37441573  0.62087155  0.37370648    -1.44100
C739        C  0.44262713  0.58363170  0.35323149     1.07500
C740        C  0.30652858  0.58298100  0.39462192     1.07600
C741        C  0.39455471  0.58442561  0.30361821     1.07500
C742        C  0.35464106  0.58635623  0.44446469     1.07500
O743        O  0.32567658  0.86800557  0.17232268    -0.82100
O744        O  0.42329658  0.87548875  0.17561076    -0.82200
O745        O  0.34918539  0.80357385  0.13087083    -0.82200
O746        O  0.40264068  0.93886866  0.13003391    -0.82100
O747        O  0.37089348  0.82393888  0.17480439    -0.82200
O748        O  0.37843878  0.92068643  0.17331625    -0.82200
O749        O  0.44351461  0.89775870  0.13224650    -0.82100
O750        O  0.30769127  0.84446421  0.12830633    -0.82200
C751        C  0.30505441  0.85032170  0.15789124     1.07600
C752        C  0.44480596  0.89224105  0.16188352     1.07400
C753        C  0.35387714  0.80262403  0.16075434     1.07600
C754        C  0.39626611  0.94136184  0.15945942     1.07500
O755        O  0.35037826  0.93832419  0.11472837    -0.82100
O756        O  0.40204034  0.80330766  0.11821328    -0.82200
O757        O  0.32912504  0.87307749  0.07089788    -0.82200
O758        O  0.42703100  0.86622326  0.07472761    -0.82100
O759        O  0.44422642  0.84437306  0.11946366    -0.82200
O760        O  0.30917700  0.89701317  0.11364058    -0.82100
O761        O  0.37458475  0.91885561  0.07187682    -0.82100
O762        O  0.38094005  0.82170855  0.07363188    -0.82200
Co763      Co  0.34442939  0.90246214  0.14402401     1.51500
Co764      Co  0.40655862  0.84025981  0.14704463     1.51700
Co765      Co  0.34530373  0.83914816  0.10072962     1.51600
Co766      Co  0.40832304  0.90180001  0.10178828     1.51500
O767        O  0.37618077  0.87096142  0.12335677    -1.44100
C768        C  0.35689998  0.93993451  0.08527870     1.07500
C769        C  0.39773884  0.80119424  0.08834691     1.07600
C770        C  0.30801375  0.89069532  0.08402817     1.07500
C771        C  0.44743412  0.84946558  0.08991703     1.07500
C772        C  0.27626217  0.99570886  0.02174066     0.00300
C773        C  0.25191634  0.97236697  0.02221256     0.00300
C774        C  0.22607226  0.97478169  0.00059363     0.00300
C775        C  0.22588641  0.99983566  0.47771150     0.00300
C776        C  0.25036670  0.52290313  0.47669358     0.00300
C777        C  0.27514954  0.52080237  0.99944215     0.00300
C778        C  0.32834660  0.52078404  0.08916503     0.78200
N779        N  0.30527036  0.52026409  0.06696196    -0.80100
C780        C  0.30191669  0.99515356  0.04625411     0.80700
N781        N  0.32181608  0.96981681  0.04866124    -0.80000
C782        C  0.34475703  0.96962705  0.07131714     0.80800
N783        N  0.34768313  0.99541007  0.09067680    -0.81700
C784        C  0.32433305  0.58944698  0.02581167     0.78200
N785        N  0.34409004  0.59258810  0.49972434    -0.80100
C786        C  0.34186633  0.57312967  0.47404572     0.80700
N787        N  0.31981670  0.54979340  0.47424398    -0.80000
C788        C  0.30001271  0.54666632  0.49975993     0.80800
N789        N  0.30232174  0.56605208  0.02555886    -0.81700
C790        C  0.15670790  0.52692126  0.42939196     0.78200
N791        N  0.15112880  0.00102709  0.41276303    -0.80100
C792        C  0.17029553  0.97578237  0.41315997     0.80700
N793        N  0.19504734  0.97589934  0.43348235    -0.80000
C794        C  0.19977207  0.00102398  0.45376811     0.80800
N795        N  0.18061437  0.52683950  0.45099610    -0.81700
C796        C  0.22709594  0.58895483  0.42260329     0.78200
N797        N  0.22680518  0.56809360  0.44707761    -0.80100
C798        C  0.25107354  0.54717162  0.45077533     0.80700
N799        N  0.27612348  0.54816712  0.43019667    -0.80000
C800        C  0.27679776  0.56925155  0.40607108     0.80800
N801        N  0.25186172  0.58857703  0.40226576    -0.81700
C802        C  0.22761732  0.91768325  0.08725398     0.78200
N803        N  0.25277123  0.89819933  0.08813456    -0.80100
C804        C  0.27853360  0.90233866  0.06950059     0.80700
N805        N  0.27822805  0.92629053  0.04800692    -0.80000
C806        C  0.25277107  0.94605521  0.04607996     0.80800
N807        N  0.22789996  0.94190200  0.06637289    -0.81700
C808        C  0.15685277  0.92654878  0.02783582     0.78200
N809        N  0.15052925  0.91148310  0.50160971    -0.80100
C810        C  0.16970353  0.91237327  0.47590229     0.80700
N811        N  0.19490231  0.93219793  0.47635497    -0.80000
C812        C  0.19994473  0.95075871  0.00139064     0.80800
N813        N  0.18072924  0.94821337  0.02756936    -0.81700
C814        C  0.02330359  0.75029139  0.47214930     0.00300
C815        C  0.49913817  0.72626137  0.47242929     0.00300
C816        C  0.47631767  0.72501457  0.49753853     0.00300
C817        C  0.47800210  0.74647913  0.02286767     0.00300
C818        C  0.50173329  0.77064222  0.02275225     0.00300
C819        C  0.02417938  0.77303433  0.49754014     0.00300
C820        C  0.07066496  0.84381524  0.47261095     0.78200
N821        N  0.04974682  0.81942956  0.47237514    -0.80100
C822        C  0.04824966  0.79902741  0.49749172     0.80700
N823        N  0.06829073  0.80187942  0.02239925    -0.80000
C824        C  0.08913416  0.82632442  0.02319600     0.80800
N825        N  0.08964937  0.84656986  0.99830940    -0.81700
C826        C  0.07159895  0.77809797  0.40205992     0.78200
N827        N  0.05011191  0.77753511  0.42623896    -0.80100
C828        C  0.04740624  0.75158211  0.44554544     0.80700
N829        N  0.06724353  0.72667984  0.44074553    -0.80000
C830        C  0.08807950  0.72664044  0.41620405     0.80800
N831        N  0.08945839  0.75210004  0.39689748    -0.81700
C832        C  0.47713274  0.83594915  0.07731816     0.78200
N833        N  0.50247433  0.83747728  0.09713636    -0.80100
C834        C  0.02847140  0.81873939  0.09359481     0.80700
N835        N  0.02812241  0.79706149  0.06943254    -0.80000
C836        C  0.50251591  0.79485364  0.04903818     0.80800
N837        N  0.47756899  0.81480129  0.05290045    -0.81700
C838        C  0.41112766  0.77186349  0.07496122     0.78200
N839        N  0.43346144  0.77157136  0.05182528    -0.80100
C840        C  0.45318733  0.74623145  0.04854404     0.80700
N841        N  0.44976557  0.72076288  0.06846965    -0.80000
C842        C  0.42688041  0.72065536  0.09121315     0.80800
N843        N  0.40838109  0.74638970  0.09405428    -0.81700
C844        C  0.02681342  0.65919496  0.42070021     0.78200
N845        N  0.02582506  0.68148680  0.44404492    -0.80100
C846        C  0.00009718  0.70039917  0.44741345     0.80700
N847        N  0.47424959  0.69579132  0.42783543    -0.80000
C848        C  0.47458137  0.67206197  0.40579974     0.80800
N849        N  0.00118854  0.65511658  0.40167858    -0.81700
C850        C  0.40827027  0.67389120  0.47217925     0.78200
N851        N  0.43122572  0.69643203  0.47216090    -0.80100
C852        C  0.45133153  0.69961429  0.49758628     0.80700
N853        N  0.44786654  0.67879634  0.02316059    -0.80000
C854        C  0.42370437  0.65751418  0.02376734     0.80800
N855        N  0.40539116  0.65527976  0.49818519    -0.81700
C856        C  0.27323215  0.72394611  0.25082778     0.00300
C857        C  0.25019405  0.72517728  0.27590027     0.00300
C858        C  0.22808357  0.75081149  0.27747586     0.00300
C859        C  0.22801775  0.77416221  0.25283143     0.00300
C860        C  0.25047685  0.77244402  0.22731945     0.00300
C861        C  0.27359101  0.74787343  0.22681449     0.00300
C862        C  0.27413057  0.66946351  0.34051847     0.78200
N863        N  0.24769797  0.65127630  0.34263112    -0.80100
C864        C  0.22181796  0.65634136  0.32443924     0.80700
N865        N  0.22292835  0.68000415  0.30268726    -0.80000
C866        C  0.24906402  0.69912318  0.30024050     0.80800
N867        N  0.27442743  0.69387789  0.31964929    -0.81700
C868        C  0.16415506  0.82864076  0.22647487     0.78200
N869        N  0.16377276  0.84914617  0.25145777    -0.80100
C870        C  0.18166527  0.84550815  0.27788699     0.80700
N871        N  0.20228915  0.82104668  0.27836704    -0.80000
C872        C  0.20407617  0.80028578  0.25307122     0.76600
N873        N  0.18430340  0.80389420  0.22749245    -0.81700
C874        C  0.34094830  0.77341060  0.17493219     0.78200
N875        N  0.34407145  0.74733610  0.15634792    -0.80100
C876        C  0.32541207  0.72146842  0.15922805     0.80700
N877        N  0.30227394  0.72185755  0.18164204    -0.80000
C878        C  0.29870658  0.74766623  0.20138349     0.80800
N879        N  0.31838342  0.77333803  0.19791146    -0.81700
C880        C  0.22396374  0.81938644  0.15648297     0.78200
N881        N  0.25000745  0.83766030  0.15202236    -0.80100
C882        C  0.27558077  0.83672833  0.17139759     0.80700
N883        N  0.27519132  0.81624613  0.19618191    -0.80000
C884        C  0.24987195  0.79642148  0.20081309     0.80800
N885        N  0.22424516  0.79829591  0.18086129    -0.81700
C886        C  0.17922354  0.77931363  0.34707236     0.78200
N887        N  0.20078045  0.77870913  0.32295251    -0.80100
C888        C  0.20412328  0.75219479  0.30418971     0.80700
N889        N  0.18485268  0.72678850  0.30952201    -0.80000
C890        C  0.16405738  0.72679017  0.33404233     0.80800
N891        N  0.16200569  0.75282287  0.35286371    -0.81700
C892        C  0.33952750  0.67124103  0.27556441     0.78200
N893        N  0.34182864  0.65244340  0.24942614    -0.80100
C894        C  0.32319894  0.65545368  0.22350856     0.80700
N895        N  0.30065949  0.67825027  0.22414820    -0.80000
C896        C  0.29764984  0.69800209  0.25024060     0.80800
N897        N  0.31749014  0.69437886  0.27576737    -0.81700
C898        C  0.02448440  0.99919675  0.27191908     0.00300
C899        C  0.02542658  0.97563209  0.24733060     0.00300
C900        C  0.00096332  0.97452390  0.22403566     0.00300
C901        C  0.47681457  0.99740105  0.22408500     0.00300
C902        C  0.47615702  0.52184157  0.24816211     0.00300
C903        C  0.99963461  0.52165892  0.27247711     0.00300
C904        C  0.02327150  0.58952393  0.32551441     0.78200
N905        N  0.99799787  0.59046019  0.34519363    -0.80100
C906        C  0.47250303  0.57002764  0.34223767     0.80700
N907        N  0.47344419  0.54817755  0.31840894    -0.80000
C908        C  0.99900216  0.54644600  0.29830432     0.80800
N909        N  0.02358329  0.56744594  0.30178608    -0.81700
C910        C  0.08901284  0.52414230  0.32619400     0.78200
N911        N  0.06748656  0.52415820  0.30233438    -0.80100
C912        C  0.04822929  0.99892875  0.29807571     0.80700
N913        N  0.05047082  0.97308167  0.31739670    -0.80000
C914        C  0.07190020  0.97277900  0.34132163     0.80800
N915        N  0.08996140  0.99868833  0.34620413    -0.81700
C916        C  0.08034226  0.91150970  0.27237296     0.78200
N917        N  0.05582829  0.93188860  0.27190781    -0.80100
C918        C  0.05170230  0.95171077  0.24659004     0.80700
N919        N  0.07171515  0.94961286  0.22085296    -0.80000
C920        C  0.09595709  0.92864972  0.22090684     0.80800
N921        N  0.10012107  0.91082835  0.24714754    -0.81700
C922        C  0.42400518  0.58796753  0.22306686     0.78200
N923        N  0.44736834  0.56624038  0.22306115    -0.80100
C924        C  0.45070582  0.54625199  0.24840688     0.80700
N925        N  0.43062576  0.54862484  0.27392299    -0.80000
C926        C  0.40756103  0.57068014  0.27415196     0.80800
N927        N  0.40472951  0.58960237  0.24859626    -0.81700
C928        C  0.42534640  0.52294075  0.15650769     0.78200
N929        N  0.40639322  0.99681831  0.15404472    -0.80100
C930        C  0.40899650  0.97120669  0.17313992     0.80700
N931        N  0.43172885  0.97160095  0.19587984    -0.80000
C932        C  0.45188870  0.99695689  0.19877928     0.80800
N933        N  0.44848487  0.52266711  0.17878786    -0.81700
C934        C  0.47448580  0.90405152  0.17605363     0.78200
N935        N  0.00037399  0.89934576  0.15854105    -0.80100
C936        C  0.02592550  0.91878773  0.15990329     0.80700
N937        N  0.02556348  0.94365609  0.18040951    -0.80000
C938        C  0.00028609  0.94832642  0.19998943     0.80800
N939        N  0.47486836  0.92817278  0.19757097    -0.81700
O940        O  0.12078249  0.57291233  0.32625643    -0.82100
O941        O  0.12940358  0.68032360  0.32963703    -0.82200
O942        O  0.05617034  0.59784463  0.36775128    -0.82200
O943        O  0.18784952  0.65368319  0.36715040    -0.82100
O944        O  0.07116670  0.62316408  0.32362556    -0.82200
O945        O  0.17228028  0.62511525  0.32464461    -0.82200
O946        O  0.15847763  0.68939379  0.37365022    -0.82100
O947        O  0.09786911  0.55440704  0.37017875    -0.82200
C948        C  0.10256390  0.55293963  0.34035087     1.07600
C949        C  0.14947297  0.69738044  0.34571449     1.07400
C950        C  0.05235056  0.60418206  0.33843065     1.07600
C951        C  0.19169817  0.64484461  0.33813808     1.07500
O952        O  0.19416058  0.59825601  0.38081046    -0.82100
O953        O  0.06210695  0.65477271  0.37929288    -0.82200
O954        O  0.12688077  0.57656046  0.42676920    -0.82200
O955        O  0.12270763  0.68049591  0.42019513    -0.82100
O956        O  0.09396171  0.68921801  0.37625658    -0.82200
O957        O  0.15130548  0.55566326  0.38433459    -0.82100
O958        O  0.18042586  0.62370234  0.42534272    -0.82100
O959        O  0.07605161  0.62885437  0.42335551    -0.82200
Co960      Co  0.15670717  0.59004366  0.35354336     1.51500
Co961      Co  0.10032414  0.64882928  0.35221687     1.51700
Co962      Co  0.09214701  0.59169203  0.39741372     1.51600
Co963      Co  0.15130573  0.64895081  0.39703108     1.51500
O964        O  0.12505503  0.61832210  0.37510364    -1.44100
C965        C  0.19844965  0.60428740  0.41018032     1.07500
C966        C  0.05693687  0.64709340  0.40825214     1.07600
C967        C  0.14534736  0.55584908  0.41410918     1.07500
C968        C  0.10274997  0.69727803  0.40436462     1.07500
O969        O  0.38284966  0.55473078  0.15053322    -0.82100
O970        O  0.38307341  0.68993521  0.09856131    -0.82200
O971        O  0.42490108  0.62706166  0.07447750    -0.82200
O972        O  0.42460503  0.61883212  0.17324267    -0.82100
O973        O  0.38127655  0.64902676  0.05599513    -0.82200
O974        O  0.38112909  0.59633349  0.19213496    -0.82200
O975        O  0.42578494  0.67062591  0.12178671    -0.82100
O976        O  0.42594950  0.57397021  0.12701456    -0.82200
C977        C  0.41202215  0.55279145  0.14427352     1.07600
C978        C  0.41248179  0.69141760  0.10409370     1.07400
C979        C  0.41058642  0.64405937  0.05358978     1.07600
C980        C  0.41053728  0.60137291  0.19389104     1.07500
O981        O  0.32415220  0.62472344  0.17244762    -0.82100
O982        O  0.32476112  0.61904123  0.07671555    -0.82200
O983        O  0.37004051  0.55390102  0.09689426    -0.82200
O984        O  0.36859973  0.69046155  0.15155178    -0.82100
O985        O  0.32539723  0.67093708  0.12882369    -0.82200
O986        O  0.32616140  0.57153554  0.11953700    -0.82100
O987        O  0.36682161  0.64873479  0.19237364    -0.82100
O988        O  0.36761948  0.59611226  0.05676395    -0.82200
Co989      Co  0.35324163  0.59040791  0.15511480     1.51500
Co990      Co  0.35339461  0.65378763  0.09349324     1.51700
Co991      Co  0.39743755  0.59147177  0.09238890     1.51600
Co992      Co  0.39676492  0.65367937  0.15632694     1.51500
O993        O  0.37521732  0.62226336  0.12431632    -1.44100
C994        C  0.33742456  0.64275280  0.19369101     1.07500
C995        C  0.33830680  0.60168208  0.05548281     1.07600
C996        C  0.34091440  0.55079122  0.10248465     1.07500
C997        C  0.33924409  0.69206653  0.14624716     1.07500
O998        O  0.17324222  0.82040769  0.12619714    -0.82100
O999        O  0.07931757  0.82041697  0.12369391    -0.82200
O1000       O  0.15378308  0.86987709  0.19363572    -0.82200
O1001       O  0.09971563  0.86803818  0.05595698    -0.82100
O1002       O  0.13248550  0.82496927  0.17634828    -0.82200
O1003       O  0.12037520  0.82360077  0.07347186    -0.82200
O1004       O  0.05976256  0.86248242  0.09883600    -0.82100
O1005       O  0.19349761  0.86313341  0.15071115    -0.82200
C1006       C  0.19440535  0.83363227  0.14433134     1.07600
C1007       C  0.05827569  0.83322579  0.10560440     1.07400
C1008       C  0.14951698  0.84046125  0.19678191     1.07600
C1009       C  0.10371860  0.83864019  0.05290462     1.07500
O1010       O  0.15226781  0.88202098  0.05777454    -0.82100
O1011       O  0.10142702  0.88361825  0.19141005    -0.82200
O1012       O  0.17800524  0.92057186  0.11827795    -0.82200
O1013       O  0.07625400  0.92071683  0.13038404    -0.82100
O1014       O  0.05833674  0.87667821  0.15223801    -0.82200
O1015       O  0.19520126  0.87580988  0.09723585    -0.82100
O1016       O  0.12806073  0.92411010  0.07883152    -0.82100
O1017       O  0.12602608  0.92543415  0.17026107    -0.82200
Co1018     Co  0.15660837  0.85011967  0.09209016     1.51500
Co1019     Co  0.09656227  0.85096796  0.15748405     1.51700
Co1020     Co  0.15938469  0.89490354  0.15464884     1.51600
Co1021     Co  0.09441948  0.89401622  0.09456914     1.51500
O1022       O  0.12674548  0.87235705  0.12470397    -1.44100
C1023       C  0.14581056  0.91145565  0.05735154     1.07500
C1024       C  0.10779524  0.91316141  0.19158094     1.07600
C1025       C  0.19840401  0.90522984  0.10165016     1.07500
C1026       C  0.05540581  0.90586984  0.14688720     1.07500
O1027       O  0.17445537  0.82916436  0.87346748    -0.82100
O1028       O  0.17401810  0.92465161  0.88067489    -0.82200
O1029       O  0.13597399  0.85045682  0.80643885    -0.82200
O1030       O  0.12820649  0.90272612  0.94327602    -0.82100
O1031       O  0.17772800  0.87408032  0.82822335    -0.82200
O1032       O  0.17175301  0.87985070  0.92526868    -0.82200
O1033       O  0.12993429  0.94379947  0.90160164    -0.82100
O1034       O  0.13329642  0.80903968  0.84748161    -0.82200
C1035       C  0.16216569  0.80777613  0.85541509     1.07600
C1036       C  0.15949126  0.94551347  0.89737273     1.07400
C1037       C  0.16527903  0.85650286  0.80632808     1.07600
C1038       C  0.15740399  0.89716993  0.94592923     1.07500
O1039       O  0.11403950  0.84987756  0.94172035    -0.82100
O1040       O  0.12177440  0.90295667  0.80531642    -0.82200
O1041       O  0.07367749  0.82882961  0.87317238    -0.82200
O1042       O  0.07401681  0.92349249  0.86934372    -0.82100
O1043       O  0.11791657  0.94338222  0.84811999    -0.82200
O1044       O  0.11455378  0.80909411  0.89921164    -0.82100
O1045       O  0.07172760  0.87251001  0.92137948    -0.82100
O1046       O  0.07762504  0.88020797  0.82211439    -0.82200
Co1047     Co  0.14408071  0.84529667  0.90647360     1.51500
Co1048     Co  0.14786864  0.90792627  0.84409101     1.51700
Co1049     Co  0.10466596  0.84545456  0.84075211     1.51600
Co1050     Co  0.10090235  0.90723959  0.90531381     1.51500
O1051       O  0.12431622  0.87649690  0.87417140    -1.44100
C1052       C  0.08484357  0.85541181  0.94281088     1.07500
C1053       C  0.09249368  0.89785674  0.80216597     1.07600
C1054       C  0.08565735  0.80767683  0.89123508     1.07500
C1055       C  0.08832112  0.94451445  0.85259032     1.07500
O1056       O  0.37016887  0.67206191  0.82572219    -0.82100
O1057       O  0.37739031  0.67319649  0.92163929    -0.82200
O1058       O  0.30476849  0.62703953  0.84820810    -0.82200
O1059       O  0.44269441  0.62835784  0.89926677    -0.82100
O1060       O  0.32441999  0.67082101  0.87029354    -0.82200
O1061       O  0.42346234  0.67139020  0.87671599    -0.82200
O1062       O  0.40133537  0.63075380  0.94092509    -0.82100
O1063       O  0.34609519  0.62896972  0.80637582    -0.82200
C1064       C  0.35205485  0.65843414  0.80493103     1.07600
C1065       C  0.39530588  0.66006900  0.94249058     1.07400
C1066       C  0.30300725  0.65657254  0.85358494     1.07600
C1067       C  0.44492629  0.65760605  0.89319442     1.07500
O1068       O  0.43988552  0.61327836  0.84616480    -0.82100
O1069       O  0.30776822  0.61301934  0.90122143    -0.82200
O1070       O  0.37673746  0.57135378  0.82455964    -0.82200
O1071       O  0.37063840  0.57262185  0.92341994    -0.82100
O1072       O  0.34886605  0.61629453  0.94265225    -0.82200
O1073       O  0.39837201  0.61495707  0.80510843    -0.82100
O1074       O  0.42109855  0.57078145  0.87101441    -0.82100
O1075       O  0.32650523  0.57012826  0.87690721    -0.82200
Co1076     Co  0.40462119  0.64325308  0.84199759     1.51500
Co1077     Co  0.34293970  0.64362455  0.90535261     1.51700
Co1078     Co  0.34208416  0.59923460  0.84238858     1.51600
Co1079     Co  0.40532546  0.60037944  0.90523553     1.51500
O1080       O  0.37375950  0.62159408  0.87375824    -1.44100
C1081       C  0.44187766  0.58421253  0.85325782     1.07500
C1082       C  0.30599680  0.58361966  0.89485824     1.07600
C1083       C  0.39371551  0.58538689  0.80351414     1.07500
C1084       C  0.35395607  0.58691967  0.94460880     1.07500
O1085       O  0.32546324  0.86900520  0.67415609    -0.82100
O1086       O  0.42303422  0.87674462  0.67633579    -0.82200
O1087       O  0.34891115  0.80457298  0.63222998    -0.82200
O1088       O  0.40167667  0.94009680  0.63104266    -0.82100
O1089       O  0.37093196  0.82485698  0.67604902    -0.82200
O1090       O  0.37801602  0.92188146  0.67460320    -0.82200
O1091       O  0.44271024  0.89912586  0.63277733    -0.82100
O1092       O  0.30741408  0.84517498  0.63026359    -0.82200
C1093       C  0.30479619  0.85132925  0.65978866     1.07600
C1094       C  0.44433478  0.89355449  0.66236658     1.07400
C1095       C  0.35387359  0.80352717  0.66205559     1.07600
C1096       C  0.39556115  0.94262972  0.66050789     1.07500
O1097       O  0.34925451  0.93932873  0.61629963    -0.82100
O1098       O  0.40167471  0.80441517  0.61922015    -0.82200
O1099       O  0.32787538  0.87425390  0.57278704    -0.82200
O1100       O  0.42570527  0.86761822  0.57540633    -0.82100
O1101       O  0.44356267  0.84579353  0.61988056    -0.82200
O1102       O  0.30818860  0.89779396  0.61588231    -0.82100
O1103       O  0.37321061  0.91986528  0.57327721    -0.82100
O1104       O  0.38015540  0.82276611  0.57481854    -0.82200
Co1105     Co  0.34379509  0.90346723  0.64571301     1.51500
Co1106     Co  0.40624128  0.84143522  0.64795765     1.51700
Co1107     Co  0.34463954  0.84016871  0.60225151     1.51600
Co1108     Co  0.40722966  0.90304161  0.60276508     1.51500
O1109       O  0.37548397  0.87206198  0.62467779    -1.44100
C1110       C  0.35576509  0.94100143  0.58684727     1.07500
C1111       C  0.39718380  0.80229071  0.58938784     1.07600
C1112       C  0.30685788  0.89180422  0.58623827     1.07500
C1113       C  0.44636502  0.85093313  0.59028555     1.07500
C1114       C  0.27634679  0.99656723  0.52238529     0.00300
C1115       C  0.25197674  0.97327273  0.52290334     0.00300
C1116       C  0.22633864  0.97539680  0.50103420     0.00300
C1117       C  0.22542087  0.99958171  0.97754279     0.00300
C1118       C  0.25008581  0.52248215  0.97688354     0.00300
C1119       C  0.27518158  0.52157630  0.49951930     0.00300
C1120       C  0.32819094  0.52206674  0.58937360     0.78200
N1121       N  0.30503559  0.52152570  0.56723499    -0.80100
C1122       C  0.30168943  0.99632256  0.54715628     0.80700
N1123       N  0.32135291  0.97092768  0.54997351    -0.80000
C1124       C  0.34392027  0.97072074  0.57292913     0.80800
N1125       N  0.34685669  0.99658762  0.59218425    -0.81700
C1126       C  0.32525869  0.58978348  0.52555430     0.78200
N1127       N  0.34294410  0.59288746  0.99989262    -0.80100
C1128       C  0.34103933  0.57352594  0.97411418     0.80700
N1129       N  0.31949532  0.54969716  0.97426296    -0.80000
C1130       C  0.29981443  0.54604449  0.99983191     0.80800
N1131       N  0.30277355  0.56682115  0.52537352    -0.81700
C1132       C  0.15866503  0.52593339  0.92680632     0.78200
N1133       N  0.15461071  0.00022790  0.90826158    -0.80100
C1134       C  0.17309578  0.97461540  0.91072079     0.80700
N1135       N  0.19624445  0.97476902  0.93284847    -0.80000
C1136       C  0.20004780  0.00019801  0.95288349     0.80800
N1137       N  0.18126009  0.52578701  0.94976374    -0.81700
C1138       C  0.22653408  0.58914037  0.92286907     0.78200
N1139       N  0.22619947  0.56805444  0.94728481    -0.80100
C1140       C  0.25061230  0.54716124  0.95101545     0.80700
N1141       N  0.27572417  0.54847931  0.93050326    -0.80000
C1142       C  0.27638018  0.56974243  0.90648684     0.80800
N1143       N  0.25141332  0.58898098  0.90274703    -0.81700
C1144       C  0.22682068  0.92080328  0.58921671     0.78200
N1145       N  0.25182187  0.90115455  0.59086167    -0.80100
C1146       C  0.27755774  0.90424177  0.57197055     0.80700
N1147       N  0.27758787  0.92749205  0.54973971    -0.80000
C1148       C  0.25241409  0.94756590  0.54729012     0.80800
N1149       N  0.22741872  0.94427691  0.56754837    -0.81700
C1150       C  0.15591000  0.92910386  0.52813565     0.78200
N1151       N  0.15200961  0.90863882  0.00139984    -0.80100
C1152       C  0.17084126  0.91031317  0.97548487     0.80700
N1153       N  0.19524520  0.93113808  0.97573073    -0.80000
C1154       C  0.19999606  0.95172024  0.50200565     0.80800
N1155       N  0.18054371  0.94986407  0.52802872    -0.81700
C1156       C  0.02306136  0.74960753  0.97198674     0.00300
C1157       C  0.49956025  0.72513407  0.97239240     0.00300
C1158       C  0.47704364  0.72354008  0.99775122     0.00300
C1159       C  0.47699829  0.74822930  0.52245056     0.00300
C1160       C  0.50068439  0.77242689  0.52235842     0.00300
C1161       C  0.02392037  0.77240785  0.99727287     0.00300
C1162       C  0.07079300  0.84310676  0.97241731     0.78200
N1163       N  0.04956851  0.81894970  0.97216104    -0.80100
C1164       C  0.04802512  0.79834024  0.99716087     0.80700
N1165       N  0.06826090  0.80305622  0.52290359    -0.80000
C1166       C  0.08873541  0.82786748  0.52366470     0.80800
N1167       N  0.08919494  0.84785203  0.49862304    -0.81700
C1168       C  0.07023879  0.77794206  0.90122539     0.78200
N1169       N  0.04917822  0.77730380  0.92582009    -0.80100
C1170       C  0.04666323  0.75118417  0.94494366     0.80700
N1171       N  0.06633638  0.72630446  0.93963277    -0.80000
C1172       C  0.08671910  0.72635077  0.91475554     0.80800
N1173       N  0.08780198  0.75184347  0.89549233    -0.81700
C1174       C  0.47598484  0.83764804  0.57725273     0.78200
N1175       N  0.50150089  0.83934711  0.59680535    -0.80100
C1176       C  0.02767781  0.82116629  0.59276504     0.80700
N1177       N  0.02750047  0.79894596  0.56910926    -0.80000
C1178       C  0.50139760  0.79673363  0.54864427     0.80800
N1179       N  0.47632823  0.81651543  0.55277384    -0.81700
C1180       C  0.41086816  0.77307779  0.57587752     0.78200
N1181       N  0.43261900  0.77295644  0.55215621    -0.80100
C1182       C  0.45244524  0.74774000  0.54836476     0.80700
N1183       N  0.44962992  0.72222343  0.56827366    -0.80000
C1184       C  0.42735966  0.72189492  0.59159605     0.80800
N1185       N  0.40881677  0.74755976  0.59503863    -0.81700
C1186       C  0.02747386  0.65704554  0.92245030     0.78200
N1187       N  0.02655040  0.67980304  0.94538442    -0.80100
C1188       C  0.00082444  0.69885000  0.94834286     0.80700
N1189       N  0.47446599  0.69535344  0.92764784    -0.80000
C1190       C  0.47457937  0.67194239  0.90531832     0.80800
N1191       N  0.00178028  0.65271266  0.90354332    -0.81700
C1192       C  0.40771783  0.67432707  0.97220845     0.78200
N1193       N  0.43147656  0.69600365  0.97217044    -0.80100
C1194       C  0.45167771  0.69850393  0.99756779     0.80700
N1195       N  0.44809685  0.67988467  0.52322683    -0.80000
C1196       C  0.42474546  0.65772004  0.52379902     0.80800
N1197       N  0.40414951  0.65588135  0.99825090    -0.81700
C1198       C  0.27261291  0.72425735  0.75003757     0.00300
C1199       C  0.24947312  0.72529799  0.77498544     0.00300
C1200       C  0.22658396  0.75023547  0.77591412     0.00300
C1201       C  0.22629480  0.77345619  0.75115680     0.00300
C1202       C  0.24908817  0.77211806  0.72597030     0.00300
C1203       C  0.27261541  0.74794276  0.72578910     0.00300
C1204       C  0.27382918  0.67068309  0.84058566     0.78200
N1205       N  0.24740474  0.65259966  0.84299700    -0.80100
C1206       C  0.22165116  0.65727034  0.82458859     0.80700
N1207       N  0.22271422  0.68047743  0.80242507    -0.80000
C1208       C  0.24874086  0.69961076  0.79969939     0.80800
N1209       N  0.27414923  0.69472359  0.81922100    -0.81700
C1210       C  0.16284887  0.82883791  0.72532468     0.78200
N1211       N  0.16251518  0.84887230  0.75063692    -0.80100
C1212       C  0.18035115  0.84467288  0.77694600     0.80700
N1213       N  0.20078029  0.82008786  0.77708980    -0.80000
C1214       C  0.20241643  0.79964942  0.75155681     0.76600
N1215       N  0.18275604  0.80384131  0.72595844    -0.81700
C1216       C  0.34129406  0.77411633  0.67610944     0.78200
N1217       N  0.34508693  0.74814096  0.65750728    -0.80100
C1218       C  0.32618378  0.72232247  0.65937417     0.80700
N1219       N  0.30225094  0.72253922  0.68091971    -0.80000
C1220       C  0.29813628  0.74815021  0.70081255     0.80800
N1221       N  0.31789845  0.77385407  0.69820932    -0.81700
C1222       C  0.22344674  0.82214411  0.65699461     0.78200
N1223       N  0.24949339  0.84070373  0.65383645    -0.80100
C1224       C  0.27502674  0.83845489  0.67311904     0.80700
N1225       N  0.27441886  0.81658262  0.69661464    -0.80000
C1226       C  0.24896997  0.79674052  0.70011684     0.80800
N1227       N  0.22350189  0.79969032  0.68010447    -0.81700
C1228       C  0.17739285  0.77821381  0.84531276     0.78200
N1229       N  0.19915273  0.77766017  0.82142550    -0.80100
C1230       C  0.20235329  0.75135719  0.80236452     0.80700
N1231       N  0.18286621  0.72597934  0.80730006    -0.80000
C1232       C  0.16184742  0.72595688  0.83167666     0.80800
N1233       N  0.15982075  0.75188745  0.85061369    -0.81700
C1234       C  0.33935889  0.67239317  0.77545488     0.78200
N1235       N  0.34218474  0.65372196  0.74928044    -0.80100
C1236       C  0.32371914  0.65656726  0.72321057     0.80700
N1237       N  0.30087915  0.67902856  0.72365771    -0.80000
C1238       C  0.29740749  0.69870076  0.74971411     0.80800
N1239       N  0.31703609  0.69526028  0.77543617    -0.81700
C1240       C  0.02312673  0.99891362  0.77282892     0.00300
C1241       C  0.02399347  0.97546379  0.74825499     0.00300
C1242       C  0.99970974  0.97463419  0.72478584     0.00300
C1243       C  0.47648666  0.99834220  0.72446979     0.00300
C1244       C  0.47547013  0.52226230  0.74882287     0.00300
C1245       C  0.99888034  0.52158857  0.77346875     0.00300
C1246       C  0.02225983  0.58833507  0.82720919     0.78200
N1247       N  0.99712292  0.58895303  0.84710339    -0.80100
C1248       C  0.47179469  0.57060410  0.84247186     0.80700
N1249       N  0.47265981  0.54845822  0.81896337    -0.80000
C1250       C  0.99800572  0.54581675  0.79950561     0.80800
N1251       N  0.02248409  0.56675101  0.80317097    -0.81700
C1252       C  0.09052464  0.52446766  0.82420871     0.78200
N1253       N  0.06767106  0.52453838  0.80165205    -0.80100
C1254       C  0.04784182  0.99935949  0.79818863     0.80700
N1255       N  0.05124758  0.97381293  0.81778460    -0.80000
C1256       C  0.07471170  0.97356699  0.83971398     0.80800
N1257       N  0.09380200  0.99909100  0.84217807    -0.81700
C1258       C  0.07979073  0.91214510  0.77296313     0.78200
N1259       N  0.05483402  0.93197722  0.77261298    -0.80100
C1260       C  0.05035389  0.95179052  0.74734827     0.80700
N1261       N  0.07036673  0.95019820  0.72163732    -0.80000
C1262       C  0.09495030  0.92970980  0.72155766     0.80800
N1263       N  0.09952343  0.91189300  0.74770482    -0.81700
C1264       C  0.42419574  0.58893471  0.72328362     0.78200
N1265       N  0.44734303  0.56697698  0.72349377    -0.80100
C1266       C  0.45026050  0.54693127  0.74886867     0.80700
N1267       N  0.42995485  0.54944647  0.77418300    -0.80000
C1268       C  0.40708745  0.57169814  0.77419198     0.80800
N1269       N  0.40470882  0.59071437  0.74863894    -0.81700
C1270       C  0.42529830  0.52375739  0.65685187     0.78200
N1271       N  0.40586131  0.99805485  0.65482996    -0.80100
C1272       C  0.40840975  0.97247798  0.67400096     0.80700
N1273       N  0.43124485  0.97280351  0.69659517    -0.80000
C1274       C  0.45157860  0.99801283  0.69925780     0.80800
N1275       N  0.44833908  0.52341930  0.67923446    -0.81700
C1276       C  0.47409805  0.90540909  0.67617394     0.78200
N1277       N  0.99963259  0.90135347  0.65748366    -0.80100
C1278       C  0.02505871  0.92090923  0.65940642     0.80700
N1279       N  0.02455795  0.94510351  0.68064855    -0.80000
C1280       C  0.99929807  0.94896467  0.70037795     0.80800
N1281       N  0.47457204  0.92932792  0.69785081    -0.81700
O1282       O  0.12169824  0.57353380  0.82484356    -0.82100
O1283       O  0.12758181  0.67909883  0.82821883    -0.82200
O1284       O  0.05606880  0.59653975  0.86864703    -0.82200
O1285       O  0.18756355  0.65443676  0.86711157    -0.82100
O1286       O  0.06977735  0.62195251  0.82417662    -0.82200
O1287       O  0.17230976  0.62617112  0.82432333    -0.82200
O1288       O  0.15692077  0.68912660  0.87181413    -0.82100
O1289       O  0.09878856  0.55421372  0.86852128    -0.82200
C1290       C  0.10355099  0.55330391  0.83864566     1.07600
C1291       C  0.14767325  0.69652801  0.84378798     1.07400
C1292       C  0.05140775  0.60301711  0.83952215     1.07600
C1293       C  0.19164068  0.64571471  0.83809975     1.07500
O1294       O  0.19428536  0.59891034  0.88048747    -0.82100
O1295       O  0.06204819  0.65320519  0.88046966    -0.82200
O1296       O  0.12854741  0.57535488  0.92533818    -0.82200
O1297       O  0.12179916  0.68072168  0.91901306    -0.82100
O1298       O  0.09256809  0.68854021  0.87518285    -0.82200
O1299       O  0.15231045  0.55521931  0.88224783    -0.82100
O1300       O  0.17974235  0.62406236  0.92491715    -0.82100
O1301       O  0.07706205  0.62701153  0.92402537    -0.82200
Co1302     Co  0.15725206  0.59050833  0.85255067     1.51500
Co1303     Co  0.09930528  0.64780526  0.85192191     1.51700
Co1304     Co  0.09302310  0.59053372  0.89701766     1.51600
Co1305     Co  0.15062344  0.64913812  0.89625819     1.51500
O1306       O  0.12501832  0.61793262  0.87445908    -1.44100
C1307       C  0.19800518  0.60463679  0.91003976     1.07500
C1308       C  0.05760428  0.64536121  0.90950635     1.07600
C1309       C  0.14679388  0.55486275  0.91206210     1.07500
C1310       C  0.10159331  0.69711020  0.90306959     1.07500
O1311       O  0.38296807  0.55565150  0.65054163    -0.82100
O1312       O  0.38379974  0.69077245  0.59827677    -0.82200
O1313       O  0.42572546  0.62756885  0.57464682    -0.82200
O1314       O  0.42515874  0.61971514  0.67332640    -0.82100
O1315       O  0.38226812  0.64975981  0.55598145    -0.82200
O1316       O  0.38155293  0.59729263  0.69204144    -0.82200
O1317       O  0.42647079  0.67159384  0.62173233    -0.82100
O1318       O  0.42625075  0.57466354  0.62722897    -0.82200
C1319       C  0.41216292  0.55359749  0.64446529     1.07600
C1320       C  0.41314360  0.69240803  0.60406098     1.07400
C1321       C  0.41155644  0.64461753  0.55370356     1.07600
C1322       C  0.41096029  0.60229955  0.69394112     1.07500
O1323       O  0.32474182  0.62598294  0.67219122    -0.82100
O1324       O  0.32553405  0.61986236  0.57629705    -0.82200
O1325       O  0.37017623  0.55487779  0.59693773    -0.82200
O1326       O  0.36934605  0.69141197  0.65128390    -0.82100
O1327       O  0.32611424  0.67197800  0.62849715    -0.82200
O1328       O  0.32641129  0.57290651  0.61949964    -0.82100
O1329       O  0.36745943  0.64975338  0.69227083    -0.82100
O1330       O  0.36845542  0.59689823  0.55657595    -0.82200
Co1331     Co  0.35363323  0.59152629  0.65502233     1.51500
Co1332     Co  0.35415610  0.65464184  0.59324098     1.51700
Co1333     Co  0.39797495  0.59219008  0.59244063     1.51600
Co1334     Co  0.39742092  0.65460668  0.65623019     1.51500
O1335       O  0.37583549  0.62318754  0.62421274    -1.44100
C1336       C  0.33804743  0.64386049  0.69350877     1.07500
C1337       C  0.33914168  0.60240611  0.55516527     1.07600
C1338       C  0.34100236  0.55202784  0.60250721     1.07500
C1339       C  0.33999577  0.69305777  0.64598953     1.07500
O1340       O  0.17290299  0.82313297  0.62634072    -0.82100
O1341       O  0.07834507  0.82279272  0.62298669    -0.82200
O1342       O  0.15265424  0.87094857  0.69349632    -0.82200
O1343       O  0.09897324  0.87005419  0.55607568    -0.82100
O1344       O  0.13125918  0.82641756  0.67528153    -0.82200
O1345       O  0.11999069  0.82584857  0.57385417    -0.82200
O1346       O  0.05869935  0.86505784  0.59867332    -0.82100
O1347       O  0.19293843  0.86587041  0.65088246    -0.82200
C1348       C  0.19403584  0.83641200  0.64445646     1.07600
C1349       C  0.05728078  0.83572748  0.60508373     1.07400
C1350       C  0.14835472  0.84142893  0.69595335     1.07600
C1351       C  0.10316520  0.84061549  0.55325557     1.07500
O1352       O  0.15137275  0.88449813  0.55789956    -0.82100
O1353       O  0.10040110  0.88495680  0.69163781    -0.82200
O1354       O  0.17673475  0.92342565  0.61934194    -0.82200
O1355       O  0.07550467  0.92310542  0.63029853    -0.82100
O1356       O  0.05760006  0.87900525  0.65211754    -0.82200
O1357       O  0.19403180  0.87902297  0.59750268    -0.82100
O1358       O  0.12718610  0.92649820  0.57903453    -0.82100
O1359       O  0.12477035  0.92708864  0.67095766    -0.82200
Co1360     Co  0.15592742  0.85275596  0.59228517     1.51500
Co1361     Co  0.09553246  0.85291901  0.65711963     1.51700
Co1362     Co  0.15830532  0.89700767  0.65514124     1.51600
Co1363     Co  0.09356243  0.89636764  0.59455179     1.51500
O1364       O  0.12584068  0.87469434  0.62477531    -1.44100
C1365       C  0.14492043  0.91391434  0.55755306     1.07500
C1366       C  0.10667399  0.91450493  0.69214305     1.07600
C1367       C  0.19722560  0.90833872  0.60261254     1.07500
C1368       C  0.05467030  0.90818757  0.64672955     1.07500
O1369       O  0.67511391  0.33053337  0.37419060    -0.82100
O1370       O  0.67283959  0.42628614  0.38111734    -0.82200
O1371       O  0.63692020  0.35080900  0.30682111    -0.82200
O1372       O  0.62747837  0.40389851  0.44329911    -0.82100
O1373       O  0.67812311  0.37542795  0.32863999    -0.82200
O1374       O  0.67141266  0.38147099  0.42565585    -0.82200
O1375       O  0.62816247  0.44479836  0.40115112    -0.82100
O1376       O  0.63442843  0.30961016  0.34807874    -0.82200
C1377       C  0.66325589  0.30879670  0.35626767     1.07600
C1378       C  0.65778448  0.44681696  0.39777352     1.07400
C1379       C  0.66611908  0.35736171  0.30682835     1.07600
C1380       C  0.65672419  0.39864122  0.44619606     1.07500
O1381       O  0.61413295  0.35081364  0.44204816    -0.82100
O1382       O  0.62203147  0.40313085  0.30502867    -0.82200
O1383       O  0.57434966  0.32878409  0.37315726    -0.82200
O1384       O  0.57291035  0.42260491  0.36918367    -0.82100
O1385       O  0.61631545  0.44337978  0.34767008    -0.82200
O1386       O  0.61532766  0.30983086  0.39968027    -0.82100
O1387       O  0.57156035  0.37244939  0.42127089    -0.82100
O1388       O  0.57803592  0.37989215  0.32149971    -0.82200
Co1389     Co  0.64433255  0.34644102  0.40691114     1.51500
Co1390     Co  0.64741562  0.40879317  0.34417947     1.51700
Co1391     Co  0.60535816  0.34560760  0.34083126     1.51600
Co1392     Co  0.60010656  0.40753322  0.40519151     1.51500
O1393       O  0.62425451  0.37710000  0.37426647    -1.44100
C1394       C  0.58485606  0.35590051  0.44295544     1.07500
C1395       C  0.59286496  0.39765728  0.30158345     1.07600
C1396       C  0.58649676  0.30798501  0.39154396     1.07500
C1397       C  0.58670278  0.44390460  0.35243916     1.07500
O1398       O  0.87073082  0.17158228  0.32554007    -0.82100
O1399       O  0.87810128  0.17301011  0.42161546    -0.82200
O1400       O  0.80566875  0.12657530  0.34788826    -0.82200
O1401       O  0.94344106  0.12890540  0.39918464    -0.82100
O1402       O  0.82502932  0.17043548  0.37016973    -0.82200
O1403       O  0.92381019  0.17168551  0.37649619    -0.82200
O1404       O  0.90212736  0.13063654  0.44091856    -0.82100
O1405       O  0.84723800  0.12820979  0.30622819    -0.82200
C1406       C  0.85273179  0.15774396  0.30482258     1.07600
C1407       C  0.89600360  0.15993008  0.44251406     1.07400
C1408       C  0.80364172  0.15605158  0.35350656     1.07600
C1409       C  0.94530450  0.15821311  0.39317461     1.07500
O1410       O  0.94106115  0.11358510  0.34618009    -0.82100
O1411       O  0.80855960  0.11285158  0.40104306    -0.82200
O1412       O  0.87780582  0.07084366  0.32488866    -0.82200
O1413       O  0.87191249  0.07236130  0.42312698    -0.82100
O1414       O  0.84974496  0.11587537  0.44233230    -0.82200
O1415       O  0.89954108  0.11434646  0.30520726    -0.82100
O1416       O  0.92247527  0.07093676  0.37084037    -0.82100
O1417       O  0.82731102  0.06986224  0.37697320    -0.82200
Co1418     Co  0.90543050  0.14312906  0.34187819     1.51500
Co1419     Co  0.84374073  0.14335020  0.40519988     1.51700
Co1420     Co  0.84307121  0.09877578  0.34238495     1.51600
Co1421     Co  0.90640750  0.10042503  0.40510201     1.51500
O1422       O  0.87466348  0.12138538  0.37366261    -1.44100
C1423       C  0.94313419  0.08446226  0.35302467     1.07500
C1424       C  0.80668828  0.08348654  0.39468083     1.07600
C1425       C  0.89482399  0.08473749  0.30378594     1.07500
C1426       C  0.85502706  0.08652581  0.44424032     1.07500
O1427       O  0.82532841  0.36789220  0.17235880    -0.82100
O1428       O  0.92293813  0.37547730  0.17569600    -0.82200
O1429       O  0.84896388  0.30341639  0.13135141    -0.82200
O1430       O  0.90232331  0.43865668  0.12993906    -0.82100
O1431       O  0.87071307  0.32401959  0.17516273    -0.82200
O1432       O  0.87807016  0.42060350  0.17325275    -0.82200
O1433       O  0.94319253  0.39754447  0.13225878    -0.82100
O1434       O  0.80743995  0.34417189  0.12839449    -0.82200
C1435       C  0.80473149  0.35017206  0.15794379     1.07600
C1436       C  0.94445080  0.39214996  0.16191781     1.07400
C1437       C  0.85373477  0.30261927  0.16123770     1.07600
C1438       C  0.89590767  0.44124340  0.15934954     1.07500
O1439       O  0.85004897  0.43805430  0.11463039    -0.82100
O1440       O  0.90181472  0.30295832  0.11870872    -0.82200
O1441       O  0.82887535  0.37259253  0.07091793    -0.82200
O1442       O  0.92675255  0.36583113  0.07485024    -0.82100
O1443       O  0.94397949  0.34412447  0.11965373    -0.82200
O1444       O  0.80890341  0.39667741  0.11357193    -0.82100
O1445       O  0.87429050  0.41851695  0.07183486    -0.82100
O1446       O  0.88084509  0.32116310  0.07399437    -0.82200
Co1447     Co  0.84410551  0.40225500  0.14398557     1.51500
Co1448     Co  0.90631495  0.34012381  0.14729141     1.51700
Co1449     Co  0.84510083  0.33876921  0.10093503     1.51600
Co1450     Co  0.90801906  0.40150052  0.10179313     1.51500
O1451       O  0.87590439  0.37070732  0.12345625    -1.44100
C1452       C  0.85664121  0.43965318  0.08520127     1.07500
C1453       C  0.89768414  0.30074778  0.08882782     1.07600
C1454       C  0.80778543  0.39032405  0.08396678     1.07500
C1455       C  0.94717381  0.34912355  0.09008373     1.07500
C1456       C  0.77634746  0.49550077  0.02138900     0.00300
C1457       C  0.75200559  0.47215561  0.02182473     0.00300
C1458       C  0.72608078  0.47470707  0.00031631     0.00300
C1459       C  0.72566192  0.49987689  0.47776586     0.00300
C1460       C  0.75064174  0.02278973  0.47648328     0.00300
C1461       C  0.77521127  0.02071317  0.99971660     0.00300
C1462       C  0.82841469  0.02069448  0.08944517     0.78200
N1463       N  0.80533165  0.02016932  0.06723883    -0.80100
C1464       C  0.80191532  0.49495785  0.04596711     0.80700
N1465       N  0.82177107  0.46960367  0.04846160    -0.80000
C1466       C  0.84459387  0.46939019  0.07123209     0.80800
N1467       N  0.84745091  0.49517955  0.09061979    -0.81700
C1468       C  0.82434492  0.08940024  0.02613058     0.78200
N1469       N  0.84448538  0.09243069  0.49952985    -0.80100
C1470       C  0.84225019  0.07309391  0.47376367     0.80700
N1471       N  0.82020597  0.04971821  0.47388863    -0.80000
C1472       C  0.80042940  0.04645514  0.49943882     0.80800
N1473       N  0.80232962  0.06599899  0.02588690    -0.81700
C1474       C  0.65684845  0.02693903  0.42952350     0.78200
N1475       N  0.65183792  0.50086952  0.41167538    -0.80100
C1476       C  0.67088537  0.47557011  0.41254795     0.80700
N1477       N  0.69525086  0.47569017  0.43334735    -0.80000
C1478       C  0.69971594  0.50088978  0.45360645     0.80800
N1479       N  0.68079788  0.02683429  0.45106419    -0.81700
C1480       C  0.72726991  0.08931699  0.42298883     0.78200
N1481       N  0.72697386  0.06814950  0.44720527    -0.80100
C1482       C  0.75126175  0.04720291  0.45068238     0.80700
N1483       N  0.77630291  0.04841314  0.43010265    -0.80000
C1484       C  0.77697060  0.06977557  0.40621986     0.80800
N1485       N  0.75205170  0.08918009  0.40267728    -0.81700
C1486       C  0.72751390  0.41786154  0.08709959     0.78200
N1487       N  0.75257913  0.39824949  0.08805638    -0.80100
C1488       C  0.77835816  0.40214571  0.06938485     0.80700
N1489       N  0.77816995  0.42601466  0.04777538    -0.80000
C1490       C  0.75277808  0.44588593  0.04575338     0.80800
N1491       N  0.72790277  0.44194227  0.06607256    -0.81700
C1492       C  0.65631683  0.42737580  0.02781619     0.78200
N1493       N  0.65078438  0.41088581  0.50155188    -0.80100
C1494       C  0.66989114  0.41201166  0.47579671     0.80700
N1495       N  0.69491948  0.43206080  0.47625587    -0.80000
C1496       C  0.69974947  0.45091123  0.00127817     0.80800
N1497       N  0.68055366  0.44863835  0.02750731    -0.81700
C1498       C  0.52295076  0.25054393  0.47199193     0.00300
C1499       C  0.99946209  0.22638966  0.47255250     0.00300
C1500       C  0.97667234  0.22504491  0.49768558     0.00300
C1501       C  0.97798435  0.24628772  0.02282706     0.00300
C1502       C  0.00160529  0.27055970  0.02259915     0.00300
C1503       C  0.52381321  0.27327999  0.49739584     0.00300
C1504       C  0.57077913  0.34378171  0.47252849     0.78200
N1505       N  0.54963162  0.31959224  0.47229948    -0.80100
C1506       C  0.54798012  0.29917339  0.49740512     0.80700
N1507       N  0.56800838  0.30223676  0.02228147    -0.80000
C1508       C  0.58863322  0.32687240  0.02301588     0.80800
N1509       N  0.58895093  0.34707812  0.99810781    -0.81700
C1510       C  0.57136211  0.27823369  0.40190756     0.78200
N1511       N  0.54983218  0.27772691  0.42605894    -0.80100
C1512       C  0.54710261  0.25181124  0.44542358     0.80700
N1513       N  0.56697665  0.22691508  0.44073646    -0.80000
C1514       C  0.58786688  0.22682453  0.41624274     0.80800
N1515       N  0.58923913  0.25222156  0.39685345    -0.81700
C1516       C  0.97687684  0.33556996  0.07749234     0.78200
N1517       N  0.00220957  0.33702264  0.09733102    -0.80100
C1518       C  0.52828007  0.31889285  0.09348958     0.80700
N1519       N  0.52792272  0.29723285  0.06931266    -0.80000
C1520       C  0.00238303  0.29474877  0.04891400     0.80800
N1521       N  0.97738106  0.31461050  0.05290640    -0.81700
C1522       C  0.91143582  0.27149821  0.07554551     0.78200
N1523       N  0.93348106  0.27123316  0.05211055    -0.80100
C1524       C  0.95326896  0.24594635  0.04863405     0.80700
N1525       N  0.95009059  0.22046639  0.06858099    -0.80000
C1526       C  0.92750043  0.22033333  0.09162218     0.80800
N1527       N  0.90904608  0.24606789  0.09474159    -0.81700
C1528       C  0.52677863  0.15915662  0.42094877     0.78200
N1529       N  0.52570268  0.18159072  0.44416313    -0.80100
C1530       C  0.49993437  0.20049637  0.44735989     0.80700
N1531       N  0.97443333  0.19639961  0.42773243    -0.80000
C1532       C  0.97473567  0.17292645  0.40541502     0.80800
N1533       N  0.50120672  0.15496433  0.40188066    -0.81700
C1534       C  0.90844035  0.17424376  0.47222400     0.78200
N1535       N  0.93152618  0.19664755  0.47222876    -0.80100
C1536       C  0.95164495  0.19968818  0.49765232     0.80700
N1537       N  0.94807321  0.17844141  0.02328618    -0.80000
C1538       C  0.92393539  0.15713091  0.02390023     0.80800
N1539       N  0.90544831  0.15562584  0.49821094    -0.81700
C1540       C  0.77293556  0.22384258  0.25061358     0.00300
C1541       C  0.74994370  0.22513990  0.27571873     0.00300
C1542       C  0.72766885  0.25064707  0.27712725     0.00300
C1543       C  0.72747058  0.27388854  0.25236631     0.00300
C1544       C  0.74992368  0.27213654  0.22685621     0.00300
C1545       C  0.77315101  0.24765667  0.22647868     0.00300
C1546       C  0.77426586  0.16998287  0.34073734     0.78200
N1547       N  0.74785043  0.15181112  0.34310671    -0.80100
C1548       C  0.72193031  0.15667811  0.32491948     0.80700
N1549       N  0.72293755  0.18012772  0.30294691    -0.80000
C1550       C  0.74901010  0.19927487  0.30027406     0.80800
N1551       N  0.77445581  0.19422146  0.31964095    -0.81700
C1552       C  0.66392239  0.32883162  0.22608744     0.78200
N1553       N  0.66364740  0.34927766  0.25111109    -0.80100
C1554       C  0.68146946  0.34542872  0.27754144     0.80700
N1555       N  0.70192817  0.32083369  0.27797519    -0.80000
C1556       C  0.70360488  0.30010500  0.25264964     0.76600
N1557       N  0.68387325  0.30391446  0.22706262    -0.81700
C1558       C  0.84110363  0.27338606  0.17555831     0.78200
N1559       N  0.84470199  0.24726374  0.15716187    -0.80100
C1560       C  0.82597395  0.22140168  0.15965665     0.80700
N1561       N  0.80239051  0.22177446  0.18159067    -0.80000
C1562       C  0.79845889  0.24757476  0.20126474     0.80800
N1563       N  0.81810793  0.27329986  0.19808501    -0.81700
C1564       C  0.72355914  0.31962497  0.15627349     0.78200
N1565       N  0.74962975  0.33791378  0.15202943    -0.80100
C1566       C  0.77518479  0.33674189  0.17139890     0.80700
N1567       N  0.77474320  0.31601312  0.19596633    -0.80000
C1568       C  0.74939351  0.29619952  0.20041055     0.80800
N1569       N  0.72377828  0.29829476  0.18045771    -0.81700
C1570       C  0.67894566  0.27927306  0.34674086     0.78200
N1571       N  0.70044357  0.27861608  0.32257843    -0.80100
C1572       C  0.70374567  0.25207485  0.30386243     0.80700
N1573       N  0.68450970  0.22666361  0.30930957    -0.80000
C1574       C  0.66380301  0.22672214  0.33390853     0.80800
N1575       N  0.66175704  0.25280053  0.35264729    -0.81700
C1576       C  0.83955331  0.17156735  0.27552962     0.78200
N1577       N  0.84200945  0.15276200  0.24943399    -0.80100
C1578       C  0.82336818  0.15557578  0.22351362     0.80700
N1579       N  0.80065150  0.17820056  0.22408361    -0.80000
C1580       C  0.79749262  0.19800035  0.25012970     0.80800
N1581       N  0.81735075  0.19454965  0.27568052    -0.81700
C1582       C  0.52412716  0.49916455  0.27179145     0.00300
C1583       C  0.52505688  0.47562124  0.24720407     0.00300
C1584       C  0.50060076  0.47453663  0.22390613     0.00300
C1585       C  0.97633209  0.49728290  0.22415709     0.00300
C1586       C  0.97643302  0.02179470  0.24840044     0.00300
C1587       C  0.50017755  0.02187970  0.27229557     0.00300
C1588       C  0.52357459  0.08953623  0.32562738     0.78200
N1589       N  0.49823510  0.09041000  0.34521331    -0.80100
C1590       C  0.97300204  0.07091938  0.34189982     0.80700
N1591       N  0.97394855  0.04876958  0.31835049    -0.80000
C1592       C  0.49944472  0.04656671  0.29817972     0.80800
N1593       N  0.52399082  0.06756168  0.30181804    -0.81700
C1594       C  0.58947192  0.02436198  0.32619756     0.78200
N1595       N  0.56801316  0.02440774  0.30227197    -0.80100
C1596       C  0.54807504  0.49905909  0.29779101     0.80700
N1597       N  0.55060739  0.47325596  0.31715330    -0.80000
C1598       C  0.57244729  0.47300746  0.34070715     0.80800
N1599       N  0.59067605  0.49887940  0.34513458    -0.81700
C1600       C  0.58028668  0.41176284  0.27217845     0.78200
N1601       N  0.55562612  0.43196750  0.27172006    -0.80100
C1602       C  0.55137674  0.45177057  0.24640759     0.80700
N1603       N  0.57136764  0.44979016  0.22065372    -0.80000
C1604       C  0.59573813  0.42898403  0.22068233     0.80800
N1605       N  0.60005667  0.41120964  0.24693536    -0.81700
C1606       C  0.92427331  0.08788508  0.22324945     0.78200
N1607       N  0.94760106  0.06612822  0.22326835    -0.80100
C1608       C  0.95095464  0.04620910  0.24865867     0.80700
N1609       N  0.93091442  0.04871339  0.27421896    -0.80000
C1610       C  0.90789051  0.07083779  0.27440530     0.80800
N1611       N  0.90505229  0.08965265  0.24879065    -0.81700
C1612       C  0.92555157  0.02279937  0.15677587     0.78200
N1613       N  0.90613033  0.49670457  0.15383222    -0.80100
C1614       C  0.90865331  0.47111326  0.17297562     0.80700
N1615       N  0.93128767  0.47153091  0.19581696    -0.80000
C1616       C  0.95143756  0.49688648  0.19878629     0.80800
N1617       N  0.94869618  0.02254814  0.17904903    -0.81700
C1618       C  0.97409590  0.40396588  0.17608103     0.78200
N1619       N  0.49994684  0.39926371  0.15861488    -0.80100
C1620       C  0.52545528  0.41877850  0.15985478     0.80700
N1621       N  0.52509449  0.44368575  0.18029245    -0.80000
C1622       C  0.49987095  0.44832646  0.19993015     0.80800
N1623       N  0.97445473  0.42810678  0.19756282    -0.81700
O1624       O  0.62112585  0.07318143  0.32647928    -0.82100
O1625       O  0.62930889  0.18019433  0.32974707    -0.82200
O1626       O  0.55633257  0.09784309  0.36797459    -0.82200
O1627       O  0.68795924  0.15399259  0.36763360    -0.82100
O1628       O  0.57139291  0.12314681  0.32387310    -0.82200
O1629       O  0.67246095  0.12543358  0.32509376    -0.82200
O1630       O  0.65831776  0.18954493  0.37373860    -0.82100
O1631       O  0.59815709  0.05451474  0.37030459    -0.82200
C1632       C  0.60292574  0.05313701  0.34048005     1.07600
C1633       C  0.64931698  0.19735799  0.34574551     1.07400
C1634       C  0.55257134  0.10417537  0.33864515     1.07600
C1635       C  0.69186405  0.14513557  0.33863161     1.07500
O1636       O  0.69430615  0.09851911  0.38123073    -0.82100
O1637       O  0.56213742  0.15473478  0.37960146    -0.82200
O1638       O  0.62702428  0.07656986  0.42700662    -0.82200
O1639       O  0.62262147  0.18076010  0.42043356    -0.82100
O1640       O  0.59388407  0.18927077  0.37644241    -0.82200
O1641       O  0.65156758  0.05582045  0.38456455    -0.82100
O1642       O  0.68050825  0.12401041  0.42571866    -0.82100
O1643       O  0.57605322  0.12879892  0.42366452    -0.82200
Co1644     Co  0.65693822  0.09029135  0.35388472     1.51500
Co1645     Co  0.60036624  0.14882887  0.35253363     1.51700
Co1646     Co  0.59229447  0.09170773  0.39765657     1.51600
Co1647     Co  0.65131347  0.14919806  0.39737184     1.51500
O1648       O  0.62518301  0.11844589  0.37545587    -1.44100
C1649       C  0.69856619  0.10459035  0.41059444     1.07500
C1650       C  0.55695381  0.14706520  0.40856026     1.07600
C1651       C  0.64552754  0.05590681  0.41431774     1.07500
C1652       C  0.60262420  0.19744148  0.40453359     1.07500
O1653       O  0.88304050  0.05458942  0.15082499    -0.82100
O1654       O  0.88364170  0.18964891  0.09871599    -0.82200
O1655       O  0.92511286  0.12673538  0.07463408    -0.82200
O1656       O  0.92486379  0.11859266  0.17341002    -0.82100
O1657       O  0.88152172  0.14876006  0.05617380    -0.82200
O1658       O  0.88135259  0.09624420  0.19237461    -0.82200
O1659       O  0.92626316  0.17025229  0.12204124    -0.82100
O1660       O  0.92612977  0.07375729  0.12721398    -0.82200
C1661       C  0.91220953  0.05262513  0.14452996     1.07600
C1662       C  0.91304349  0.19106261  0.10432249     1.07400
C1663       C  0.91081485  0.14373170  0.05374064     1.07600
C1664       C  0.91077699  0.10121335  0.19408712     1.07500
O1665       O  0.82438961  0.12468461  0.17257598    -0.82100
O1666       O  0.82494186  0.11902872  0.07702927    -0.82200
O1667       O  0.87015261  0.05372627  0.09721652    -0.82200
O1668       O  0.86915225  0.19041500  0.15170025    -0.82100
O1669       O  0.82587083  0.17096108  0.12909897    -0.82200
O1670       O  0.82630830  0.07145734  0.11981762    -0.82100
O1671       O  0.86707934  0.14864207  0.19252645    -0.82100
O1672       O  0.86768587  0.09589274  0.05705509    -0.82200
Co1673     Co  0.85345186  0.09030826  0.15535888     1.51500
Co1674     Co  0.85375045  0.15366780  0.09372925     1.51700
Co1675     Co  0.89759163  0.09123783  0.09261817     1.51600
Co1676     Co  0.89712810  0.15348673  0.15652810     1.51500
O1677       O  0.87549037  0.12210101  0.12454005    -1.44100
C1678       C  0.83765639  0.14274368  0.19378796     1.07500
C1679       C  0.83839090  0.10158287  0.05580124     1.07600
C1680       C  0.84101719  0.05068258  0.10277586     1.07500
C1681       C  0.83978819  0.19206851  0.14649209     1.07500
O1682       O  0.67289647  0.32079245  0.12584587    -0.82100
O1683       O  0.57915881  0.32070099  0.12345256    -0.82200
O1684       O  0.65346112  0.37020698  0.19340661    -0.82200
O1685       O  0.59944843  0.36863751  0.05567079    -0.82100
O1686       O  0.63225614  0.32531529  0.17600021    -0.82200
O1687       O  0.62001744  0.32417186  0.07316906    -0.82200
O1688       O  0.55949869  0.36271592  0.09857670    -0.82100
O1689       O  0.69318583  0.36344550  0.15047158    -0.82200
C1690       C  0.69405376  0.33394733  0.14404866     1.07600
C1691       C  0.55807733  0.33345740  0.10538164     1.07400
C1692       C  0.64925161  0.34077105  0.19647113     1.07600
C1693       C  0.60336848  0.33922840  0.05262285     1.07500
O1694       O  0.65195429  0.38273757  0.05765402    -0.82100
O1695       O  0.60111586  0.38397231  0.19113858    -0.82200
O1696       O  0.67784076  0.42094680  0.11807995    -0.82200
O1697       O  0.57575055  0.42094818  0.13030050    -0.82100
O1698       O  0.55796787  0.37680402  0.15201601    -0.82200
O1699       O  0.69491153  0.37616382  0.09700466    -0.82100
O1700       O  0.62758569  0.42469180  0.07882298    -0.82100
O1701       O  0.62576285  0.42579603  0.17002643    -0.82200
Co1702     Co  0.65627388  0.35062051  0.09181507     1.51500
Co1703     Co  0.59629978  0.35127899  0.15722768     1.51700
Co1704     Co  0.65911318  0.39526390  0.15442476     1.51600
Co1705     Co  0.59403307  0.39442742  0.09440397     1.51500
O1706       O  0.62643363  0.37277455  0.12447364    -1.44100
C1707       C  0.64541168  0.41216547  0.05733121     1.07500
C1708       C  0.60751639  0.41351308  0.19132968     1.07600
C1709       C  0.69821598  0.40555343  0.10145452     1.07500
C1710       C  0.55493907  0.40598721  0.14674257     1.07500
O1711       O  0.67428324  0.32950182  0.87363599    -0.82100
O1712       O  0.67311514  0.42524976  0.88099110    -0.82200
O1713       O  0.63610198  0.35066028  0.80650761    -0.82200
O1714       O  0.62734844  0.40291067  0.94326100    -0.82100
O1715       O  0.67759333  0.37458571  0.82849929    -0.82200
O1716       O  0.67107230  0.38028915  0.92535209    -0.82200
O1717       O  0.62876863  0.44411859  0.90156064    -0.82100
O1718       O  0.63334883  0.30916813  0.84745571    -0.82200
C1719       C  0.66217745  0.30801044  0.85556884     1.07600
C1720       C  0.65834040  0.44600752  0.89761618     1.07400
C1721       C  0.66538960  0.35683247  0.80658120     1.07600
C1722       C  0.65658062  0.39755133  0.94596326     1.07500
O1723       O  0.61345911  0.34999153  0.94158335    -0.82100
O1724       O  0.62159846  0.40305999  0.80524323    -0.82200
O1725       O  0.57351748  0.32863809  0.87288539    -0.82200
O1726       O  0.57319538  0.42323843  0.86921202    -0.82100
O1727       O  0.61700176  0.44339128  0.84800857    -0.82200
O1728       O  0.61440519  0.30917781  0.89912489    -0.82100
O1729       O  0.57110897  0.37237728  0.92106397    -0.82100
O1730       O  0.57746633  0.38013941  0.82182677    -0.82200
Co1731     Co  0.64367973  0.34554876  0.90648873     1.51500
Co1732     Co  0.64735705  0.40823999  0.84419778     1.51700
Co1733     Co  0.60458203  0.34547875  0.84060811     1.51600
Co1734     Co  0.60010619  0.40725442  0.90519671     1.51500
O1735       O  0.62386275  0.37664369  0.87412950    -1.44100
C1736       C  0.58424157  0.35543729  0.94257952     1.07500
C1737       C  0.59234294  0.39791271  0.80198744     1.07600
C1738       C  0.58554620  0.30759102  0.89105807     1.07500
C1739       C  0.58740307  0.44439274  0.85257323     1.07500
O1740       O  0.87035764  0.17176699  0.82593796    -0.82100
O1741       O  0.87754233  0.17283903  0.92177955    -0.82200
O1742       O  0.80480520  0.12661951  0.84840681    -0.82200
O1743       O  0.94288192  0.12765496  0.89945849    -0.82100
O1744       O  0.82447681  0.17042150  0.87041291    -0.82200
O1745       O  0.92376902  0.17080001  0.87703057    -0.82200
O1746       O  0.90148589  0.13037357  0.94106321    -0.82100
O1747       O  0.84613396  0.12873785  0.80659170    -0.82200
C1748       C  0.85217701  0.15818738  0.80514698     1.07600
C1749       C  0.89546871  0.15969455  0.94262358     1.07400
C1750       C  0.80303692  0.15615290  0.85374735     1.07600
C1751       C  0.94520931  0.15690507  0.89346288     1.07500
O1752       O  0.93986473  0.11267741  0.84633658    -0.82100
O1753       O  0.80793325  0.11262523  0.90141755    -0.82200
O1754       O  0.87683522  0.07109552  0.82458359    -0.82200
O1755       O  0.87057941  0.07231716  0.92371697    -0.82100
O1756       O  0.84897194  0.11608937  0.94289081    -0.82200
O1757       O  0.89842025  0.11474852  0.80521518    -0.82100
O1758       O  0.92100659  0.07022675  0.87124702    -0.82100
O1759       O  0.82663172  0.06974734  0.87701302    -0.82200
Co1760     Co  0.90475801  0.14284221  0.84221699     1.51500
Co1761     Co  0.84305616  0.14328530  0.90551414     1.51700
Co1762     Co  0.84216947  0.09890259  0.84252741     1.51600
Co1763     Co  0.90535806  0.09990291  0.90544500     1.51500
O1764       O  0.87385307  0.12120375  0.87393895    -1.44100
C1765       C  0.94180540  0.08361331  0.85347256     1.07500
C1766       C  0.80614400  0.08323480  0.89499922     1.07600
C1767       C  0.89376810  0.08519437  0.80354104     1.07500
C1768       C  0.85399228  0.08671732  0.94491376     1.07500
O1769       O  0.82545684  0.36869037  0.67404528    -0.82100
O1770       O  0.92308049  0.37651757  0.67622647    -0.82200
O1771       O  0.84889511  0.30426800  0.63205872    -0.82200
O1772       O  0.90162219  0.43987654  0.63098554    -0.82100
O1773       O  0.87089411  0.32451264  0.67590881    -0.82200
O1774       O  0.87797422  0.42163064  0.67454030    -0.82200
O1775       O  0.94271169  0.39893493  0.63266007    -0.82100
O1776       O  0.80737264  0.34492383  0.63013953    -0.82200
C1777       C  0.80478266  0.35101977  0.65968362     1.07600
C1778       C  0.94436389  0.39336242  0.66224613     1.07400
C1779       C  0.85382507  0.30319041  0.66188993     1.07600
C1780       C  0.89550438  0.44239927  0.66044826     1.07500
O1781       O  0.84917191  0.43914133  0.61630019    -0.82100
O1782       O  0.90167201  0.30421183  0.61906872    -0.82200
O1783       O  0.82791398  0.37404061  0.57266229    -0.82200
O1784       O  0.92572300  0.36747933  0.57530836    -0.82100
O1785       O  0.94354227  0.34558481  0.61977514    -0.82200
O1786       O  0.80816511  0.39754080  0.61574525    -0.82100
O1787       O  0.87312971  0.41978803  0.57323162    -0.82100
O1788       O  0.88015855  0.32259769  0.57468245    -0.82200
Co1789     Co  0.84375449  0.40320789  0.64563436     1.51500
Co1790     Co  0.90622718  0.34119531  0.64784296     1.51700
Co1791     Co  0.84462808  0.33993362  0.60212644     1.51600
Co1792     Co  0.90718997  0.40286659  0.60268094     1.51500
O1793       O  0.87546470  0.37183533  0.62457703    -1.44100
C1794       C  0.85565836  0.44089062  0.58685003     1.07500
C1795       C  0.89720166  0.30212606  0.58923179     1.07600
C1796       C  0.80688749  0.39159582  0.58608222     1.07500
C1797       C  0.94639504  0.35080949  0.59020069     1.07500
C1798       C  0.77614087  0.49663448  0.52248446     0.00300
C1799       C  0.75183440  0.47324303  0.52293065     0.00300
C1800       C  0.72618523  0.47535914  0.50104170     0.00300
C1801       C  0.72544775  0.49954122  0.97729377     0.00300
C1802       C  0.75024248  0.02227500  0.97704086     0.00300
C1803       C  0.77553329  0.02137161  0.49920114     0.00300
C1804       C  0.82862766  0.02180274  0.58896601     0.78200
N1805       N  0.80534864  0.02128619  0.56696158    -0.80100
C1806       C  0.80153033  0.49635047  0.54724800     0.80700
N1807       N  0.82118650  0.47093332  0.55003920    -0.80000
C1808       C  0.84373988  0.47065720  0.57301909     0.80800
N1809       N  0.84665106  0.49648053  0.59234729    -0.81700
C1810       C  0.82565670  0.08952485  0.52534896     0.78200
N1811       N  0.84294208  0.09283283  0.00019659    -0.80100
C1812       C  0.84104807  0.07343109  0.97444064     0.80700
N1813       N  0.81951023  0.04961650  0.97460381    -0.80000
C1814       C  0.79981929  0.04599240  0.00015075     0.80800
N1815       N  0.80319676  0.06654379  0.52510002    -0.81700
C1816       C  0.65831550  0.02588203  0.92770255     0.78200
N1817       N  0.65307516  0.50056256  0.90968147    -0.80100
C1818       C  0.67174232  0.47500225  0.91145788     0.80700
N1819       N  0.69551531  0.47510974  0.93289390    -0.80000
C1820       C  0.69977221  0.50044075  0.95295594     0.80800
N1821       N  0.68130930  0.02568085  0.95025425    -0.81700
C1822       C  0.72673558  0.08889970  0.92308504     0.78200
N1823       N  0.72641158  0.06784299  0.94750979    -0.80100
C1824       C  0.75078699  0.04691444  0.95119428     0.80700
N1825       N  0.77586461  0.04815219  0.93064196    -0.80000
C1826       C  0.77651355  0.06938100  0.90660339     0.80800
N1827       N  0.75156433  0.08865880  0.90288903    -0.81700
C1828       C  0.72679110  0.42032045  0.58900104     0.78200
N1829       N  0.75182745  0.40072118  0.59055824    -0.80100
C1830       C  0.77759044  0.40400130  0.57175291     0.80700
N1831       N  0.77758982  0.42738847  0.54964642    -0.80000
C1832       C  0.75235276  0.44740688  0.54724439     0.80800
N1833       N  0.72734755  0.44393257  0.56747137    -0.81700
C1834       C  0.65602765  0.42855089  0.52808590     0.78200
N1835       N  0.65109290  0.40962097  0.00134968    -0.80100
C1836       C  0.66997063  0.41094182  0.97543809     0.80700
N1837       N  0.69473364  0.43132664  0.97565121    -0.80000
C1838       C  0.69991790  0.45156293  0.50194222     0.80800
N1839       N  0.68049396  0.44951911  0.52797905    -0.81700
C1840       C  0.52294652  0.24968876  0.97194658     0.00300
C1841       C  0.99975873  0.22471817  0.97250941     0.00300
C1842       C  0.97718584  0.22320066  0.99783521     0.00300
C1843       C  0.97737635  0.24816029  0.52268086     0.00300
C1844       C  0.00106782  0.27235892  0.52261824     0.00300
C1845       C  0.52376368  0.27248960  0.99723858     0.00300
C1846       C  0.57016179  0.34334530  0.97220789     0.78200
N1847       N  0.54913443  0.31903282  0.97201496    -0.80100
C1848       C  0.54774725  0.29850091  0.99706460     0.80700
N1849       N  0.56804470  0.30299536  0.52280071    -0.80000
C1850       C  0.58878906  0.32757093  0.52356019     0.80800
N1851       N  0.58942969  0.34757013  0.49851036    -0.81700
C1852       C  0.57024597  0.27782754  0.90119087     0.78200
N1853       N  0.54912581  0.27723645  0.92573286    -0.80100
C1854       C  0.54665145  0.25120654  0.94498721     0.80700
N1855       N  0.56642143  0.22635639  0.93985964    -0.80000
C1856       C  0.58688971  0.22634710  0.91504519     0.80800
N1857       N  0.58793690  0.25176559  0.89566317    -0.81700
C1858       C  0.97610423  0.33767030  0.57722599     0.78200
N1859       N  0.00159558  0.33951826  0.59680817    -0.80100
C1860       C  0.52768657  0.32068219  0.59306863     0.80700
N1861       N  0.52738186  0.29872392  0.56915503    -0.80000
C1862       C  0.00166991  0.29671412  0.54883067     0.80800
N1863       N  0.97654468  0.31643858  0.55284354    -0.81700
C1864       C  0.91087509  0.27292838  0.57569649     0.78200
N1865       N  0.93285048  0.27286039  0.55218927    -0.80100
C1866       C  0.95272370  0.24766439  0.54852584     0.80700
N1867       N  0.94976481  0.22211973  0.56840124    -0.80000
C1868       C  0.92727561  0.22175188  0.59152115     0.80800
N1869       N  0.90865594  0.24737693  0.59478805    -0.81700
C1870       C  0.52739348  0.15723164  0.92234182     0.78200
N1871       N  0.52640764  0.17998357  0.94526749    -0.80100
C1872       C  0.50066246  0.19899694  0.94819528     0.80700
N1873       N  0.97477385  0.19466687  0.92790089    -0.80000
C1874       C  0.97487803  0.17113710  0.90570812     0.80800
N1875       N  0.50174454  0.15286671  0.90338141    -0.81700
C1876       C  0.90791075  0.17392894  0.97234340     0.78200
N1877       N  0.93165011  0.19562314  0.97229606    -0.80100
C1878       C  0.95186109  0.19813589  0.99768264     0.80700
N1879       N  0.94833246  0.17991614  0.52325319    -0.80000
C1880       C  0.92484752  0.15788912  0.52380602     0.80800
N1881       N  0.90437642  0.15547190  0.99838572    -0.81700
C1882       C  0.77262618  0.22394045  0.75022513     0.00300
C1883       C  0.74954493  0.22507896  0.77526009     0.00300
C1884       C  0.72681892  0.25020751  0.77636110     0.00300
C1885       C  0.72653689  0.27347165  0.75161977     0.00300
C1886       C  0.74921986  0.27197472  0.72630554     0.00300
C1887       C  0.77265648  0.24767282  0.72600168     0.00300
C1888       C  0.77385182  0.17024528  0.84071327     0.78200
N1889       N  0.74742134  0.15215306  0.84307431    -0.80100
C1890       C  0.72164171  0.15689707  0.82471503     0.80700
N1891       N  0.72270797  0.18018663  0.80261883    -0.80000
C1892       C  0.74875962  0.19931396  0.79992426     0.80800
N1893       N  0.77417021  0.19435085  0.81942143    -0.81700
C1894       C  0.66316863  0.32899204  0.72567810     0.78200
N1895       N  0.66294119  0.34915505  0.75089545    -0.80100
C1896       C  0.68068335  0.34496380  0.77727670     0.80700
N1897       N  0.70102939  0.32027613  0.77752305    -0.80000
C1898       C  0.70266618  0.29975544  0.75202339     0.76600
N1899       N  0.68299262  0.30392443  0.72641865    -0.81700
C1900       C  0.84114601  0.27377640  0.67593053     0.78200
N1901       N  0.84485504  0.24777749  0.65733623    -0.80100
C1902       C  0.82602600  0.22191232  0.65938411     0.80700
N1903       N  0.80220517  0.22214587  0.68107324    -0.80000
C1904       C  0.79812307  0.24781029  0.70091823     0.80800
N1905       N  0.81786082  0.27352693  0.69816022    -0.81700
C1906       C  0.72341393  0.32172211  0.65716283     0.78200
N1907       N  0.74947430  0.34023069  0.65383066    -0.80100
C1908       C  0.77504913  0.33807633  0.67306948     0.80700
N1909       N  0.77448381  0.31633996  0.69670297    -0.80000
C1910       C  0.74903326  0.29652295  0.70036677     0.80800
N1911       N  0.72351463  0.29939148  0.68040155    -0.81700
C1912       C  0.67756206  0.27842983  0.84568978     0.78200
N1913       N  0.69932211  0.27781666  0.82178753    -0.80100
C1914       C  0.70265912  0.25140529  0.80289872     0.80700
N1915       N  0.68328389  0.22598997  0.80800615    -0.80000
C1916       C  0.66227190  0.22601178  0.83237866     0.80800
N1917       N  0.66011682  0.25204194  0.85117199    -0.81700
C1918       C  0.83949394  0.17214889  0.77563403     0.78200
N1919       N  0.84238288  0.15348829  0.74944376    -0.80100
C1920       C  0.82389390  0.15625082  0.72336377     0.80700
N1921       N  0.80097824  0.17866155  0.72381910    -0.80000
C1922       C  0.79743950  0.19833922  0.74988678     0.80800
N1923       N  0.81707922  0.19493139  0.77561289    -0.81700
C1924       C  0.52326854  0.49935985  0.77265141     0.00300
C1925       C  0.52423465  0.47594007  0.74803893     0.00300
C1926       C  0.49997252  0.47510619  0.72455912     0.00300
C1927       C  0.97621495  0.49815739  0.72463531     0.00300
C1928       C  0.97532361  0.02182837  0.74897678     0.00300
C1929       C  0.49924270  0.02175244  0.77326776     0.00300
C1930       C  0.52259638  0.08836846  0.82721821     0.78200
N1931       N  0.49741201  0.08893716  0.84705967    -0.80100
C1932       C  0.97172498  0.06997858  0.84274271     0.80700
N1933       N  0.97256334  0.04788446  0.81918816    -0.80000
C1934       C  0.49837274  0.04593327  0.79934336     0.80800
N1935       N  0.52285592  0.06685515  0.80310577    -0.81700
C1936       C  0.59017881  0.02421239  0.82506632     0.78200
N1937       N  0.56774165  0.02435542  0.80209057    -0.80100
C1938       C  0.54767477  0.49957611  0.79825767     0.80700
N1939       N  0.55070610  0.47392312  0.81775803    -0.80000
C1940       C  0.57368487  0.47356270  0.84018504     0.80800
N1941       N  0.59262918  0.49912695  0.84327972    -0.81700
C1942       C  0.57970536  0.41228114  0.77278856     0.78200
N1943       N  0.55491221  0.43232591  0.77245257    -0.80100
C1944       C  0.55055839  0.45218198  0.74719196     0.80700
N1945       N  0.57054463  0.45042114  0.72145794    -0.80000
C1946       C  0.59498912  0.42975062  0.72138946     0.80800
N1947       N  0.59943895  0.41191337  0.74754176    -0.81700
C1948       C  0.92443252  0.08873178  0.72330774     0.78200
N1949       N  0.94744203  0.06663048  0.72354957    -0.80100
C1950       C  0.95024302  0.04659437  0.74894911     0.80700
N1951       N  0.92993229  0.04921289  0.77423366    -0.80000
C1952       C  0.90719653  0.07158188  0.77421833     0.80800
N1953       N  0.90495554  0.09064736  0.74867140    -0.81700
C1954       C  0.92563997  0.02346875  0.65659751     0.78200
N1955       N  0.90589254  0.49782136  0.65469753    -0.80100
C1956       C  0.90834091  0.47226577  0.67392430     0.80700
N1957       N  0.93106600  0.47261578  0.69663263    -0.80000
C1958       C  0.95138211  0.49783032  0.69935680     0.80800
N1959       N  0.94842350  0.02309964  0.67925509    -0.81700
C1960       C  0.97410794  0.40535075  0.67605075     0.78200
N1961       N  0.49962334  0.40094489  0.65819371    -0.80100
C1962       C  0.52507195  0.42051087  0.65973646     0.80700
N1963       N  0.52465089  0.44504264  0.68060370    -0.80000
C1964       C  0.49942949  0.44923530  0.70033509     0.80800
N1965       N  0.97449038  0.42918177  0.69782772    -0.81700
O1966       O  0.62159545  0.07314398  0.82553856    -0.82100
O1967       O  0.62801660  0.17916125  0.82880423    -0.82200
O1968       O  0.55622753  0.09653903  0.86882403    -0.82200
O1969       O  0.68762648  0.15415717  0.86731643    -0.82100
O1970       O  0.57018344  0.12193551  0.82440310    -0.82200
O1971       O  0.67228743  0.12574602  0.82464748    -0.82200
O1972       O  0.65730222  0.18908567  0.87246740    -0.82100
O1973       O  0.59880259  0.05399286  0.86931676    -0.82200
C1974       C  0.60345642  0.05297753  0.83944032     1.07600
C1975       C  0.64806904  0.19657663  0.84445892     1.07400
C1976       C  0.55171677  0.10301881  0.83966674     1.07600
C1977       C  0.69162171  0.14537751  0.83830706     1.07500
O1978       O  0.69438205  0.09871364  0.88082770    -0.82100
O1979       O  0.56216269  0.15326917  0.88053441    -0.82200
O1980       O  0.62835968  0.07541679  0.92602534    -0.82200
O1981       O  0.62196720  0.18064520  0.91941833    -0.82100
O1982       O  0.59283180  0.18849119  0.87553795    -0.82200
O1983       O  0.65232369  0.05515310  0.88308182    -0.82100
O1984       O  0.67999627  0.12388387  0.92529794    -0.82100
O1985       O  0.57695062  0.12718723  0.92423161    -0.82200
Co1986     Co  0.65724528  0.09022945  0.85309501     1.51500
Co1987     Co  0.59960982  0.14777986  0.85227678     1.51700
Co1988     Co  0.59298608  0.09055413  0.89748395     1.51600
Co1989     Co  0.65083357  0.14899775  0.89671091     1.51500
O1990       O  0.62513409  0.11782710  0.87494042    -1.44100
C1991       C  0.69819697  0.10444016  0.91035889     1.07500
C1992       C  0.55755979  0.14548660  0.90955877     1.07600
C1993       C  0.64665546  0.05487548  0.91287908     1.07500
C1994       C  0.60179451  0.19705784  0.90343953     1.07500
O1995       O  0.88330085  0.05535489  0.65034416    -0.82100
O1996       O  0.88373971  0.19059925  0.59840368    -0.82200
O1997       O  0.92592780  0.12756440  0.57457997    -0.82200
O1998       O  0.92535502  0.11948694  0.67331164    -0.82100
O1999       O  0.88239647  0.14967410  0.55597983    -0.82200
O2000       O  0.88181419  0.09686136  0.69195412    -0.82200
O2001       O  0.92648303  0.17147081  0.62174978    -0.82100
O2002       O  0.92657180  0.07448145  0.62709712    -0.82200
C2003       C  0.91250289  0.05335357  0.64428410     1.07600
C2004       C  0.91309869  0.19227103  0.60410146     1.07400
C2005       C  0.91170296  0.14462875  0.55367808     1.07600
C2006       C  0.91119888  0.10199393  0.69390023     1.07500
O2007       O  0.82493152  0.12554767  0.67229738    -0.82100
O2008       O  0.82577419  0.11949888  0.57616448    -0.82200
O2009       O  0.87056668  0.05465151  0.59671961    -0.82200
O2010       O  0.86926474  0.19103841  0.65141052    -0.82100
O2011       O  0.82610911  0.17152609  0.62852752    -0.82200
O2012       O  0.82674372  0.07253032  0.61931941    -0.82100
O2013       O  0.86763263  0.14932233  0.69238025    -0.82100
O2014       O  0.86879958  0.09674890  0.55642417    -0.82200
Co2015     Co  0.85389177  0.09115361  0.65492915     1.51500
Co2016     Co  0.85424283  0.15435801  0.59324504     1.51700
Co2017     Co  0.89827894  0.09204987  0.59232120     1.51600
Co2018     Co  0.89750622  0.15432969  0.65626777     1.51500
O2019       O  0.87601974  0.12291488  0.62417241    -1.44100
C2020       C  0.83822285  0.14343938  0.69363863     1.07500
C2021       C  0.83946873  0.10214843  0.55499644     1.07600
C2022       C  0.84139025  0.05173232  0.60225486     1.07500
C2023       C  0.83991125  0.19262218  0.64607609     1.07500
O2024       O  0.67285113  0.32269233  0.62651799    -0.82100
O2025       O  0.57841795  0.32231987  0.62326218    -0.82200
O2026       O  0.65265011  0.37092930  0.69369157    -0.82200
O2027       O  0.59900673  0.36965093  0.55609619    -0.82100
O2028       O  0.63138715  0.32627099  0.67568656    -0.82200
O2029       O  0.61997382  0.32541794  0.57385055    -0.82200
O2030       O  0.55881787  0.36450483  0.59873647    -0.82100
O2031       O  0.69289529  0.36545948  0.65103271    -0.82200
C2032       C  0.69397655  0.33598297  0.64464592     1.07600
C2033       C  0.55738137  0.33519738  0.60526119     1.07400
C2034       C  0.64847787  0.34141249  0.69628678     1.07600
C2035       C  0.60319518  0.34022754  0.55322503     1.07500
O2036       O  0.65145034  0.38399878  0.55795117    -0.82100
O2037       O  0.60038543  0.38488067  0.69161699    -0.82200
O2038       O  0.67676802  0.42296232  0.61922013    -0.82200
O2039       O  0.57541976  0.42264077  0.63034385    -0.82100
O2040       O  0.55753319  0.37854226  0.65215945    -0.82200
O2041       O  0.69411067  0.37848060  0.59762161    -0.82100
O2042       O  0.62720852  0.42603171  0.57898729    -0.82100
O2043       O  0.62481375  0.42691424  0.67078943    -0.82200
Co2044     Co  0.65594264  0.35228051  0.59238244     1.51500
Co2045     Co  0.59557685  0.35261040  0.65729487     1.51700
Co2046     Co  0.65832480  0.39671695  0.65514590     1.51600
Co2047     Co  0.59358402  0.39590599  0.59459231     1.51500
O2048       O  0.62586185  0.37429177  0.62485009    -1.44100
C2049       C  0.64497463  0.41341112  0.55753291     1.07500
C2050       C  0.60668235  0.41443387  0.69200788     1.07600
C2051       C  0.69726645  0.40783003  0.60255150     1.07500
C2052       C  0.55459887  0.40773210  0.64682023     1.07500
O2053       O  0.67566314  0.83000240  0.37405250    -0.82100
O2054       O  0.67343754  0.92619114  0.38084804    -0.82200
O2055       O  0.63746931  0.85026609  0.30688587    -0.82200
O2056       O  0.62839236  0.90374967  0.44293544    -0.82100
O2057       O  0.67870900  0.87499506  0.32855911    -0.82200
O2058       O  0.67222268  0.88112818  0.42521637    -0.82200
O2059       O  0.62874015  0.94466366  0.40085691    -0.82100
O2060       O  0.63483985  0.80914347  0.34814228    -0.82200
C2061       C  0.66367863  0.80824506  0.35625125     1.07600
C2062       C  0.65833639  0.94677278  0.39742570     1.07400
C2063       C  0.66666725  0.85684012  0.30683805     1.07600
C2064       C  0.65762806  0.89837347  0.44574725     1.07500
O2065       O  0.61490674  0.85073464  0.44198571    -0.82100
O2066       O  0.62258494  0.90255214  0.30490942    -0.82200
O2067       O  0.57488026  0.82859041  0.37327573    -0.82200
O2068       O  0.57353644  0.92235955  0.36904368    -0.82100
O2069       O  0.61692342  0.94300345  0.34735616    -0.82200
O2070       O  0.61585490  0.80959715  0.39976980    -0.82100
O2071       O  0.57231108  0.87225684  0.42115331    -0.82100
O2072       O  0.57858335  0.87948958  0.32158206    -0.82200
Co2073     Co  0.64499786  0.84613387  0.40677770     1.51500
Co2074     Co  0.64802197  0.90842275  0.34398378     1.51700
Co2075     Co  0.60588734  0.84521660  0.34088180     1.51600
Co2076     Co  0.60081572  0.90732542  0.40499239     1.51500
O2077       O  0.62490414  0.87678936  0.37414484    -1.44100
C2078       C  0.58561303  0.85574992  0.44285401     1.07500
C2079       C  0.59338367  0.89719106  0.30160605     1.07600
C2080       C  0.58699969  0.80782040  0.39169995     1.07500
C2081       C  0.58733710  0.94362398  0.35224959     1.07500
O2082       O  0.87058431  0.67126276  0.32551696    -0.82100
O2083       O  0.87798954  0.67305957  0.42165288    -0.82200
O2084       O  0.80552436  0.62628853  0.34807116    -0.82200
O2085       O  0.94332261  0.62881274  0.39931543    -0.82100
O2086       O  0.82487645  0.67023552  0.37019396    -0.82200
O2087       O  0.92371613  0.67153325  0.37647363    -0.82200
O2088       O  0.90205335  0.63073106  0.44102379    -0.82100
O2089       O  0.84706836  0.62782519  0.30636822    -0.82200
C2090       C  0.85262621  0.65733294  0.30482280     1.07600
C2091       C  0.89591946  0.66002689  0.44256925     1.07400
C2092       C  0.80346985  0.65576372  0.35363165     1.07600
C2093       C  0.94523002  0.65808895  0.39315969     1.07500
O2094       O  0.94092999  0.61342458  0.34632035    -0.82100
O2095       O  0.80841832  0.61280442  0.40130837    -0.82200
O2096       O  0.87767381  0.57058603  0.32509343    -0.82200
O2097       O  0.87167786  0.57246112  0.42357792    -0.82100
O2098       O  0.84963207  0.61609893  0.44263997    -0.82200
O2099       O  0.89941581  0.61404082  0.30529884    -0.82100
O2100       O  0.92240786  0.57079944  0.37107645    -0.82100
O2101       O  0.82715040  0.56974272  0.37732671    -0.82200
Co2102     Co  0.90528968  0.64289842  0.34194263     1.51500
Co2103     Co  0.84361378  0.64333704  0.40533794     1.51700
Co2104     Co  0.84293249  0.59852566  0.34262001     1.51600
Co2105     Co  0.90626842  0.60037983  0.40532632     1.51500
O2106       O  0.87452849  0.62125197  0.37382997    -1.44100
C2107       C  0.94302947  0.58431142  0.35316103     1.07500
C2108       C  0.80651307  0.58343010  0.39498680     1.07600
C2109       C  0.89463017  0.58444387  0.30389856     1.07500
C2110       C  0.85479212  0.58674187  0.44464573     1.07500
O2111       O  0.82596879  0.86774472  0.17315955    -0.82100
O2112       O  0.92333625  0.87534386  0.17631583    -0.82200
O2113       O  0.84954793  0.80310668  0.13182803    -0.82200
O2114       O  0.90269088  0.93876599  0.13049647    -0.82100
O2115       O  0.87124131  0.82358867  0.17569763    -0.82200
O2116       O  0.87856975  0.92073370  0.17387916    -0.82200
O2117       O  0.94353175  0.89757568  0.13291771    -0.82100
O2118       O  0.80804237  0.84394035  0.12923841    -0.82200
C2119       C  0.80537936  0.84996628  0.15879257     1.07600
C2120       C  0.94477618  0.89216192  0.16258141     1.07400
C2121       C  0.85427409  0.80219946  0.16170911     1.07600
C2122       C  0.89628278  0.94144207  0.15989282     1.07500
O2123       O  0.85031300  0.93802856  0.11536322    -0.82100
O2124       O  0.90243008  0.80283855  0.11914546    -0.82200
O2125       O  0.82930267  0.87251118  0.07171428    -0.82200
O2126       O  0.92707494  0.86587584  0.07542601    -0.82100
O2127       O  0.94444963  0.84419085  0.12017649    -0.82200
O2128       O  0.80928904  0.89645425  0.11442497    -0.82100
O2129       O  0.87457580  0.91859488  0.07253092    -0.82100
O2130       O  0.88127325  0.82107639  0.07453145    -0.82200
Co2131     Co  0.84456749  0.90217093  0.14472950     1.51500
Co2132     Co  0.90681318  0.83997623  0.14783683     1.51700
Co2133     Co  0.84559343  0.83862225  0.10160627     1.51600
Co2134     Co  0.90836392  0.90153371  0.10242600     1.51500
O2135       O  0.87635433  0.87062313  0.12411785    -1.44100
C2136       C  0.85692091  0.93971344  0.08594359     1.07500
C2137       C  0.89815049  0.80062723  0.08928058     1.07600
C2138       C  0.80819636  0.89018741  0.08480159     1.07500
C2139       C  0.94753910  0.84915933  0.09058400     1.07500
C2140       C  0.77655167  0.99549944  0.02217609     0.00300
C2141       C  0.75238877  0.97196819  0.02253054     0.00300
C2142       C  0.72662069  0.97421144  0.00078405     0.00300
C2143       C  0.72586008  0.99998138  0.47751390     0.00300
C2144       C  0.75044795  0.52268045  0.47674103     0.00300
C2145       C  0.77510581  0.52078141  0.99900524     0.00300
C2146       C  0.82804560  0.52048622  0.08882174     0.78200
N2147       N  0.80500485  0.52000655  0.06657688    -0.80100
C2148       C  0.80216472  0.99504861  0.04672843     0.80700
N2149       N  0.82200538  0.96969232  0.04927428    -0.80000
C2150       C  0.84485608  0.96949242  0.07201240     0.80800
N2151       N  0.84778101  0.99534283  0.09133206    -0.81700
C2152       C  0.82368026  0.58971082  0.02593435     0.78200
N2153       N  0.84380703  0.59281290  0.49992220    -0.80100
C2154       C  0.84176503  0.57343052  0.47415876     0.80700
N2155       N  0.81988242  0.54989595  0.47426953    -0.80000
C2156       C  0.80009303  0.54651175  0.49979818     0.80800
N2157       N  0.80192912  0.56605441  0.02554561    -0.81700
C2158       C  0.65650191  0.52688705  0.42993607     0.78200
N2159       N  0.65226406  0.00091476  0.41121509    -0.80100
C2160       C  0.67134751  0.97561443  0.41214689     0.80700
N2161       N  0.69562712  0.97576913  0.43303407    -0.80000
C2162       C  0.69998588  0.00095482  0.45332074     0.80800
N2163       N  0.68053665  0.52678979  0.45139228    -0.81700
C2164       C  0.72701857  0.58919756  0.42331306     0.78200
N2165       N  0.72675645  0.56800727  0.44749865    -0.80100
C2166       C  0.75105698  0.54708649  0.45095055     0.80700
N2167       N  0.77609891  0.54834478  0.43038123    -0.80000
C2168       C  0.77676786  0.56975814  0.40654464     0.80800
N2169       N  0.75181747  0.58914891  0.40301186    -0.81700
C2170       C  0.72784314  0.91756208  0.08770180     0.78200
N2171       N  0.75296455  0.89803416  0.08875904    -0.80100
C2172       C  0.77879818  0.90203427  0.07019659     0.80700
N2173       N  0.77863157  0.92592831  0.04861496    -0.80000
C2174       C  0.75320645  0.94574982  0.04652885     0.80800
N2175       N  0.72826181  0.94170438  0.06674359    -0.81700
C2176       C  0.65754590  0.92568741  0.02765469     0.78200
N2177       N  0.65188228  0.90991881  0.50117382    -0.80100
C2178       C  0.67086513  0.91149860  0.47536408     0.80700
N2179       N  0.69551159  0.93199759  0.47580796    -0.80000
C2180       C  0.70066459  0.95004990  0.00145269     0.80800
N2181       N  0.68134088  0.94741838  0.02752941    -0.81700
C2182       C  0.52245117  0.75097197  0.47181032     0.00300
C2183       C  0.99997570  0.72557000  0.47269671     0.00300
C2184       C  0.97724725  0.72417671  0.49788205     0.00300
C2185       C  0.97843123  0.74607021  0.02337312     0.00300
C2186       C  0.00191217  0.77047717  0.02301379     0.00300
C2187       C  0.52322799  0.77383816  0.49707754     0.00300
C2188       C  0.57148427  0.84351676  0.47234026     0.78200
N2189       N  0.54977923  0.81982712  0.47209418    -0.80100
C2190       C  0.54768778  0.79944201  0.49720792     0.80700
N2191       N  0.56848219  0.80137271  0.02260208    -0.80000
C2192       C  0.58982300  0.82541070  0.02340594     0.80800
N2193       N  0.59084754  0.84552300  0.99844470    -0.81700
C2194       C  0.57177844  0.77819018  0.40220504     0.78200
N2195       N  0.54990616  0.77783172  0.42603806    -0.80100
C2196       C  0.54684243  0.75198827  0.44544935     0.80700
N2197       N  0.56669461  0.72700886  0.44110291    -0.80000
C2198       C  0.58796080  0.72681604  0.41693480     0.80800
N2199       N  0.58967930  0.75214874  0.39752190    -0.81700
C2200       C  0.97720608  0.83558926  0.07788440     0.78200
N2201       N  0.00259569  0.83710605  0.09762605    -0.80100
C2202       C  0.52827206  0.81895107  0.09330418     0.80700
N2203       N  0.52789992  0.79715555  0.06925235    -0.80000
C2204       C  0.00268176  0.79472584  0.04929826     0.80800
N2205       N  0.97765491  0.81456702  0.05333157    -0.81700
C2206       C  0.91173960  0.77131739  0.07591050     0.78200
N2207       N  0.93393403  0.77107281  0.05261902    -0.80100
C2208       C  0.95364847  0.74573282  0.04912715     0.80700
N2209       N  0.95025846  0.72016919  0.06892792    -0.80000
C2210       C  0.92751080  0.71998693  0.09181410     0.80800
N2211       N  0.90910961  0.74578170  0.09494624    -0.81700
C2212       C  0.52652532  0.65892105  0.42202019     0.78200
N2213       N  0.52536575  0.68179691  0.44477740    -0.80100
C2214       C  0.49956554  0.70071101  0.44754568     0.80700
N2215       N  0.97463159  0.69594615  0.42779493    -0.80000
C2216       C  0.97477912  0.67277650  0.40515514     0.80800
N2217       N  0.50099558  0.65430546  0.40300146    -0.81700
C2218       C  0.90829336  0.67434661  0.47231710     0.78200
N2219       N  0.93180223  0.69631323  0.47233071    -0.80100
C2220       C  0.95197556  0.69900878  0.49774620     0.80700
N2221       N  0.94821241  0.67820330  0.02360336    -0.80000
C2222       C  0.92381682  0.65718491  0.02402867     0.80800
N2223       N  0.90494907  0.65581565  0.49832940    -0.81700
C2224       C  0.77284064  0.72303378  0.25055512     0.00300
C2225       C  0.74970957  0.72421057  0.27554029     0.00300
C2226       C  0.72751101  0.74974731  0.27700442     0.00300
C2227       C  0.72757258  0.77315034  0.25242488     0.00300
C2228       C  0.75027887  0.77161756  0.22714652     0.00300
C2229       C  0.77339796  0.74708505  0.22669111     0.00300
C2230       C  0.77405410  0.66961093  0.34092266     0.78200
N2231       N  0.74759292  0.65154077  0.34359877    -0.80100
C2232       C  0.72164458  0.65625398  0.32539141     0.80700
N2233       N  0.72267000  0.67941246  0.30310829    -0.80000
C2234       C  0.74879567  0.69844376  0.30015646     0.80800
N2235       N  0.77425498  0.69355692  0.31952206    -0.81700
C2236       C  0.66411430  0.82817339  0.22620142     0.78200
N2237       N  0.66403925  0.84869956  0.25116687    -0.80100
C2238       C  0.68193657  0.84486116  0.27754237     0.80700
N2239       N  0.70228420  0.82018663  0.27797894    -0.80000
C2240       C  0.70377656  0.79938558  0.25270712     0.76600
N2241       N  0.68397082  0.80317797  0.22717049    -0.81700
C2242       C  0.84151687  0.77291153  0.17592726     0.78200
N2243       N  0.84502455  0.74682846  0.15743307    -0.80100
C2244       C  0.82621831  0.72100676  0.15985573     0.80700
N2245       N  0.80266558  0.72134882  0.18180449    -0.80000
C2246       C  0.79880764  0.74707473  0.20156969     0.80800
N2247       N  0.81851536  0.77278074  0.19847138    -0.81700
C2248       C  0.72420255  0.81955198  0.15695189     0.78200
N2249       N  0.75023404  0.83795432  0.15291803    -0.80100
C2250       C  0.77579618  0.83660387  0.17226713     0.80700
N2251       N  0.77532407  0.81566010  0.19665419    -0.80000
C2252       C  0.74994001  0.79583103  0.20090534     0.80800
N2253       N  0.72439890  0.79802867  0.18091487    -0.81700
C2254       C  0.67920427  0.77863100  0.34676995     0.78200
N2255       N  0.70058032  0.77782222  0.32251284    -0.80100
C2256       C  0.70362583  0.75126369  0.30378252     0.80700
N2257       N  0.68423317  0.72596864  0.30930814    -0.80000
C2258       C  0.66361510  0.72618930  0.33400636     0.80800
N2259       N  0.66186597  0.75228228  0.35275439    -0.81700
C2260       C  0.83952949  0.67102826  0.27545443     0.78200
N2261       N  0.84204540  0.65218605  0.24937559    -0.80100
C2262       C  0.82335042  0.65489092  0.22346197     0.80700
N2263       N  0.80053675  0.67741496  0.22403072    -0.80000
C2264       C  0.79735352  0.69721813  0.25006845     0.80800
N2265       N  0.81724535  0.69390148  0.27558168    -0.81700
C2266       C  0.52450897  0.99876547  0.27182496     0.00300
C2267       C  0.52540466  0.97514988  0.24729144     0.00300
C2268       C  0.50099817  0.97410519  0.22392101     0.00300
C2269       C  0.97675754  0.99780242  0.22426873     0.00300
C2270       C  0.97589769  0.52112299  0.24843962     0.00300
C2271       C  0.49981071  0.52230314  0.27226956     0.00300
C2272       C  0.52293079  0.58920809  0.32666967     0.78200
N2273       N  0.49763367  0.58957043  0.34634663    -0.80100
C2274       C  0.97284889  0.57078967  0.34175089     0.80700
N2275       N  0.97365069  0.54837763  0.31842726    -0.80000
C2276       C  0.49890041  0.54672764  0.29838458     0.80800
N2277       N  0.52337438  0.56774784  0.30240248    -0.81700
C2278       C  0.58873302  0.52466150  0.32658444     0.78200
N2279       N  0.56746235  0.52471888  0.30250018    -0.80100
C2280       C  0.54854897  0.99876075  0.29774412     0.80700
N2281       N  0.55114680  0.97301472  0.31715040    -0.80000
C2282       C  0.57314181  0.97276054  0.34054495     0.80800
N2283       N  0.59148791  0.99860344  0.34478150    -0.81700
C2284       C  0.58071438  0.91133066  0.27228412     0.78200
N2285       N  0.55603203  0.93151806  0.27186507    -0.80100
C2286       C  0.55172402  0.95129510  0.24653085     0.80700
N2287       N  0.57169133  0.94930348  0.22076560    -0.80000
C2288       C  0.59606835  0.92852250  0.22078267     0.80800
N2289       N  0.60044137  0.91077524  0.24702112    -0.81700
C2290       C  0.92392930  0.58726652  0.22318442     0.78200
N2291       N  0.94715575  0.56542399  0.22325336    -0.80100
C2292       C  0.95048153  0.54557604  0.24868513     0.80700
N2293       N  0.93052511  0.54825607  0.27429343    -0.80000
C2294       C  0.90760491  0.57048727  0.27447388     0.80800
N2295       N  0.90476242  0.58923263  0.24877809    -0.81700
C2296       C  0.92538843  0.52242782  0.15637815     0.78200
N2297       N  0.90629519  0.99703885  0.15429357    -0.80100
C2298       C  0.90895816  0.97142185  0.17342451     0.80700
N2299       N  0.93167767  0.97191062  0.19617300    -0.80000
C2300       C  0.95179241  0.99729673  0.19903687     0.80800
N2301       N  0.94843893  0.52216498  0.17878195    -0.81700
C2302       C  0.97440491  0.90403610  0.17677834     0.78200
N2303       N  0.50043335  0.89958481  0.15770848    -0.80100
C2304       C  0.52602820  0.91896610  0.15930990     0.80700
N2305       N  0.52568616  0.94358167  0.18012770    -0.80000
C2306       C  0.50040795  0.94804536  0.19974958     0.80800
N2307       N  0.97474944  0.92841991  0.19800001    -0.81700
O2308       O  0.62036325  0.57341415  0.32699634    -0.82100
O2309       O  0.62876364  0.67986571  0.33017562    -0.82200
O2310       O  0.55558265  0.59801437  0.36905622    -0.82200
O2311       O  0.68771889  0.65368214  0.36818971    -0.82100
O2312       O  0.57063286  0.62301791  0.32480926    -0.82200
O2313       O  0.67199211  0.62528987  0.32564154    -0.82200
O2314       O  0.65798488  0.68923594  0.37400920    -0.82100
O2315       O  0.59738409  0.55464840  0.37080314    -0.82200
C2316       C  0.60213706  0.55337507  0.34095959     1.07600
C2317       C  0.64895439  0.69696114  0.34600451     1.07400
C2318       C  0.55181054  0.60412244  0.33969132     1.07600
C2319       C  0.69156271  0.64481703  0.33918314     1.07500
O2320       O  0.69377756  0.59804757  0.38168380    -0.82100
O2321       O  0.56184011  0.65479497  0.38065143    -0.82200
O2322       O  0.62665031  0.57646907  0.42753480    -0.82200
O2323       O  0.62258418  0.68067336  0.42109694    -0.82100
O2324       O  0.59364146  0.68917431  0.37723045    -0.82200
O2325       O  0.65079652  0.55562855  0.38493056    -0.82100
O2326       O  0.68025548  0.62382813  0.42611231    -0.82100
O2327       O  0.57587077  0.62874760  0.42462012    -0.82200
Co2328     Co  0.65630718  0.59016310  0.35436717     1.51500
Co2329     Co  0.59982480  0.64872442  0.35327079     1.51700
Co2330     Co  0.59179424  0.59170532  0.39841150     1.51600
Co2331     Co  0.65100702  0.64902736  0.39787034     1.51500
O2332       O  0.62468995  0.61835529  0.37609061    -1.44100
C2333       C  0.69823368  0.60434691  0.41097481     1.07500
C2334       C  0.55676212  0.64707456  0.40962251     1.07600
C2335       C  0.64504629  0.55579197  0.41474142     1.07500
C2336       C  0.60253952  0.69735317  0.40527320     1.07500
O2337       O  0.88278795  0.55405817  0.15026460    -0.82100
O2338       O  0.88359241  0.68932637  0.09876213    -0.82200
O2339       O  0.92481224  0.62642723  0.07447374    -0.82200
O2340       O  0.92463861  0.61779070  0.17323689    -0.82100
O2341       O  0.88126352  0.64853895  0.05606682    -0.82200
O2342       O  0.88109471  0.59538494  0.19209704    -0.82200
O2343       O  0.92617590  0.66972314  0.12199834    -0.82100
O2344       O  0.92586273  0.57332732  0.12671583    -0.82200
C2345       C  0.91198743  0.55219377  0.14405582     1.07600
C2346       C  0.91299170  0.69067226  0.10439657     1.07400
C2347       C  0.91056626  0.64354921  0.05367469     1.07600
C2348       C  0.91049607  0.60044761  0.19392073     1.07500
O2349       O  0.82422521  0.62410111  0.17243689    -0.82100
O2350       O  0.82457305  0.61900173  0.07698482    -0.82200
O2351       O  0.86979188  0.55342448  0.09671635    -0.82200
O2352       O  0.86922144  0.68985621  0.15179766    -0.82100
O2353       O  0.82583937  0.67066856  0.12918260    -0.82200
O2354       O  0.82598536  0.57112204  0.11940325    -0.82100
O2355       O  0.86700504  0.64786114  0.19243092    -0.82100
O2356       O  0.86716342  0.59575493  0.05679294    -0.82200
Co2357     Co  0.85319751  0.58974626  0.15501794     1.51500
Co2358     Co  0.85357720  0.65343951  0.09369980     1.51700
Co2359     Co  0.89723820  0.59090979  0.09224364     1.51600
Co2360     Co  0.89703283  0.65282108  0.15644361     1.51500
O2361       O  0.87526309  0.62165880  0.12434073    -1.44100
C2362       C  0.83757245  0.64203542  0.19370746     1.07500
C2363       C  0.83787571  0.60158034  0.05565523     1.07600
C2364       C  0.84065325  0.55041006  0.10225375     1.07500
C2365       C  0.83987342  0.69165886  0.14660934     1.07500
O2366       O  0.67352828  0.82032040  0.12663383    -0.82100
O2367       O  0.57908913  0.82039305  0.12352464    -0.82200
O2368       O  0.65363627  0.86957193  0.19359215    -0.82200
O2369       O  0.60000357  0.86730359  0.05604209    -0.82100
O2370       O  0.63227121  0.82472238  0.17618491    -0.82200
O2371       O  0.62076212  0.82300464  0.07387289    -0.82200
O2372       O  0.55977740  0.86252082  0.09863157    -0.82100
O2373       O  0.69367622  0.86319942  0.15090568    -0.82200
C2374       C  0.69468182  0.83369274  0.14465167     1.07600
C2375       C  0.55811770  0.83329112  0.10541558     1.07400
C2376       C  0.64937024  0.84013269  0.19662192     1.07600
C2377       C  0.60410145  0.83787991  0.05319510     1.07500
O2378       O  0.65255069  0.88128077  0.05768838    -0.82100
O2379       O  0.60135459  0.88347014  0.19130293    -0.82200
O2380       O  0.67806091  0.92046130  0.11841836    -0.82200
O2381       O  0.57648487  0.92072009  0.12993699    -0.82100
O2382       O  0.55842289  0.87682269  0.15200944    -0.82200
O2383       O  0.69532585  0.87570114  0.09737817    -0.82100
O2384       O  0.62851119  0.92356163  0.07850633    -0.82100
O2385       O  0.62598673  0.92524654  0.17014706    -0.82200
Co2386     Co  0.65687356  0.84975655  0.09231530     1.51500
Co2387     Co  0.59646646  0.85087735  0.15733985     1.51700
Co2388     Co  0.65939293  0.89475481  0.15470656     1.51600
Co2389     Co  0.59467803  0.89373297  0.09434026     1.51500
O2390       O  0.62685066  0.87214268  0.12467818    -1.44100
C2391       C  0.64623653  0.91072721  0.05712026     1.07500
C2392       C  0.60776076  0.91300176  0.19145911     1.07600
C2393       C  0.69851610  0.90511988  0.10185802     1.07500
C2394       C  0.55556610  0.90599255  0.14647673     1.07500
O2395       O  0.67479573  0.82919578  0.87306197    -0.82100
O2396       O  0.67407070  0.92472263  0.88059766    -0.82200
O2397       O  0.63649762  0.85033816  0.80631517    -0.82200
O2398       O  0.62903756  0.90259962  0.94304287    -0.82100
O2399       O  0.67818674  0.87423697  0.82798307    -0.82200
O2400       O  0.67247300  0.87959851  0.92487116    -0.82200
O2401       O  0.62987144  0.94369518  0.90133922    -0.82100
O2402       O  0.63357058  0.80894778  0.84732300    -0.82200
C2403       C  0.66247189  0.80776457  0.85514046     1.07600
C2404       C  0.65944376  0.94546198  0.89735307     1.07400
C2405       C  0.66577516  0.85653032  0.80614133     1.07600
C2406       C  0.65822134  0.89687830  0.94562749     1.07500
O2407       O  0.61499448  0.84970650  0.94180865    -0.82100
O2408       O  0.62232253  0.90286453  0.80491540    -0.82200
O2409       O  0.57397805  0.82894745  0.87288984    -0.82200
O2410       O  0.57398185  0.92264262  0.86958621    -0.82100
O2411       O  0.61756841  0.94290017  0.84795400    -0.82200
O2412       O  0.61482116  0.80916135  0.89901241    -0.82100
O2413       O  0.57245575  0.87195224  0.92164689    -0.82100
O2414       O  0.57812826  0.88018699  0.82159570    -0.82200
Co2415     Co  0.64461806  0.84517806  0.90622004     1.51500
Co2416     Co  0.64807989  0.90788202  0.84390136     1.51700
Co2417     Co  0.60505462  0.84541292  0.84049120     1.51600
Co2418     Co  0.60128141  0.90684985  0.90533929     1.51500
O2419       O  0.62470472  0.87635035  0.87399093    -1.44100
C2420       C  0.58578347  0.85501761  0.94305033     1.07500
C2421       C  0.59307428  0.89777439  0.80163183     1.07600
C2422       C  0.58589985  0.80783708  0.89104669     1.07500
C2423       C  0.58797037  0.94374268  0.85269182     1.07500
O2424       O  0.87163733  0.67264684  0.82642054    -0.82100
O2425       O  0.87809941  0.67346039  0.92183925    -0.82200
O2426       O  0.80547978  0.62764477  0.84824378    -0.82200
O2427       O  0.94337598  0.62753674  0.89989780    -0.82100
O2428       O  0.82517910  0.67133139  0.87044531    -0.82200
O2429       O  0.92468941  0.67091541  0.87760276    -0.82200
O2430       O  0.90177149  0.63085494  0.94120385    -0.82100
O2431       O  0.84710830  0.62988713  0.80684234    -0.82200
C2432       C  0.85334865  0.65931484  0.80558294     1.07600
C2433       C  0.89588079  0.66021783  0.94273122     1.07400
C2434       C  0.80369346  0.65712870  0.85380156     1.07600
C2435       C  0.94593862  0.65679128  0.89404565     1.07500
O2436       O  0.94039160  0.61261898  0.84678379    -0.82100
O2437       O  0.80821877  0.61363983  0.90129767    -0.82200
O2438       O  0.87735002  0.57187821  0.82457834    -0.82200
O2439       O  0.87041658  0.57295849  0.92373177    -0.82100
O2440       O  0.84919532  0.61689299  0.94293407    -0.82200
O2441       O  0.89925073  0.61545579  0.80541180    -0.82100
O2442       O  0.92102825  0.57032969  0.87159218    -0.82100
O2443       O  0.82671390  0.57067191  0.87686082    -0.82200
Co2444     Co  0.90565595  0.64326818  0.84261765     1.51500
Co2445     Co  0.84353194  0.64409077  0.90553372     1.51700
Co2446     Co  0.84273145  0.59982133  0.84251044     1.51600
Co2447     Co  0.90553745  0.60021486  0.90569580     1.51500
O2448       O  0.87437123  0.62183019  0.87409873    -1.44100
C2449       C  0.94198972  0.58349452  0.85384784     1.07500
C2450       C  0.80624808  0.58426974  0.89483530     1.07600
C2451       C  0.89446955  0.58592653  0.80364224     1.07500
C2452       C  0.85387903  0.58746275  0.94487777     1.07500
O2453       O  0.82541830  0.86858980  0.67253614    -0.82100
O2454       O  0.92279691  0.87635243  0.67550969    -0.82200
O2455       O  0.84905749  0.80415168  0.63100632    -0.82200
O2456       O  0.90204437  0.93978029  0.63005194    -0.82100
O2457       O  0.87083059  0.82458319  0.67487348    -0.82200
O2458       O  0.87799633  0.92159576  0.67340957    -0.82200
O2459       O  0.94293648  0.89862866  0.63212941    -0.82100
O2460       O  0.80748651  0.84488187  0.62855218    -0.82200
C2461       C  0.80483003  0.85084821  0.65811449     1.07600
C2462       C  0.94420018  0.89319153  0.66177391     1.07400
C2463       C  0.85388439  0.80319399  0.66086585     1.07600
C2464       C  0.89567223  0.94235268  0.65946268     1.07500
O2465       O  0.84969957  0.93902077  0.61492047    -0.82100
O2466       O  0.90189825  0.80399111  0.61823694    -0.82200
O2467       O  0.82863768  0.87367889  0.57115740    -0.82200
O2468       O  0.92616953  0.86725763  0.57451872    -0.82100
O2469       O  0.94372419  0.84536509  0.61908714    -0.82200
O2470       O  0.80871032  0.89746701  0.61400883    -0.82100
O2471       O  0.87393900  0.91961388  0.57205549    -0.82100
O2472       O  0.88064624  0.82228038  0.57369561    -0.82200
Co2473     Co  0.84398896  0.90312014  0.64423299     1.51500
Co2474     Co  0.90628258  0.84104867  0.64697232     1.51700
Co2475     Co  0.84500717  0.83971790  0.60087848     1.51600
Co2476     Co  0.90769046  0.90268251  0.60180626     1.51500
O2477       O  0.87574714  0.87168438  0.62344326    -1.44100
C2478       C  0.85640628  0.94073813  0.58552299     1.07500
C2479       C  0.89753427  0.80180303  0.58839115     1.07600
C2480       C  0.80754369  0.89126355  0.58438853     1.07500
C2481       C  0.94667998  0.85051017  0.58950529     1.07500
C2482       C  0.77643182  0.99653543  0.52202585     0.00300
C2483       C  0.75206785  0.97322053  0.52255281     0.00300
C2484       C  0.72638117  0.97543199  0.50075940     0.00300
C2485       C  0.72582034  0.99904595  0.97778769     0.00300
C2486       C  0.75012170  0.52250151  0.97637019     0.00300
C2487       C  0.77529164  0.52135353  0.49953239     0.00300
C2488       C  0.82759993  0.52200949  0.59012244     0.78200
N2489       N  0.80471318  0.52158415  0.56766308    -0.80100
C2490       C  0.80197663  0.99609976  0.54655271     0.80700
N2491       N  0.82172180  0.97072013  0.54901910    -0.80000
C2492       C  0.84467843  0.97051197  0.57158654     0.80800
N2493       N  0.84789269  0.99638868  0.59080010    -0.81700
C2494       C  0.82502397  0.58970380  0.52576277     0.78200
N2495       N  0.84218254  0.59352840  0.00001172    -0.80100
C2496       C  0.84058946  0.57416676  0.97421551     0.80700
N2497       N  0.81935646  0.55008083  0.97422322    -0.80000
C2498       C  0.79962891  0.54615731  0.99969252     0.80800
N2499       N  0.80273293  0.56657315  0.52547509    -0.81700
C2500       C  0.65741364  0.52659824  0.92803191     0.78200
N2501       N  0.65439837  0.99996857  0.90911648    -0.80100
C2502       C  0.67296860  0.97439286  0.91117878     0.80700
N2503       N  0.69633680  0.97442101  0.93308837    -0.80000
C2504       C  0.70028198  0.99973615  0.95326455     0.80800
N2505       N  0.68082193  0.52643007  0.95015827    -0.81700
C2506       C  0.72671158  0.58980619  0.92328485     0.78200
N2507       N  0.72630638  0.56826793  0.94726528    -0.80100
C2508       C  0.75067992  0.54731909  0.95069027     0.80700
N2509       N  0.77581325  0.54887807  0.93021374    -0.80000
C2510       C  0.77655119  0.57056239  0.90657254     0.80800
N2511       N  0.75165037  0.59000503  0.90321854    -0.81700
C2512       C  0.72734558  0.91896798  0.58773304     0.78200
N2513       N  0.75236067  0.89928559  0.58862636    -0.80100
C2514       C  0.77814528  0.90317595  0.56995094     0.80700
N2515       N  0.77804587  0.92711188  0.54846215    -0.80000
C2516       C  0.75276596  0.94709155  0.54656073     0.80800
N2517       N  0.72784138  0.94316175  0.56683324    -0.81700
C2518       C  0.65683489  0.92765205  0.52769853     0.78200
N2519       N  0.65286890  0.90778339  0.00118478    -0.80100
C2520       C  0.67172941  0.90965389  0.97529842     0.80700
N2521       N  0.69607801  0.93053197  0.97569641    -0.80000
C2522       C  0.70026376  0.95148561  0.50153732     0.80800
N2523       N  0.68091753  0.94906540  0.52761423    -0.81700
C2524       C  0.52261394  0.75006998  0.97153544     0.00300
C2525       C  0.00041036  0.72433744  0.97321148     0.00300
C2526       C  0.97775932  0.72288630  0.99846884     0.00300
C2527       C  0.97800072  0.74731485  0.52286257     0.00300
C2528       C  0.00169821  0.77151432  0.52285477     0.00300
C2529       C  0.52382552  0.77252008  0.99711469     0.00300
C2530       C  0.57189171  0.84246807  0.97259436     0.78200
N2531       N  0.55022110  0.81873473  0.97229400    -0.80100
C2532       C  0.54827761  0.79813849  0.99725739     0.80700
N2533       N  0.56779639  0.80284867  0.52261668    -0.80000
C2534       C  0.58910176  0.82692638  0.52334674     0.80800
N2535       N  0.59024354  0.84684125  0.49827538    -0.81700
C2536       C  0.57040488  0.77817184  0.90111289     0.78200
N2537       N  0.54906894  0.77760451  0.92546806    -0.80100
C2538       C  0.54641620  0.75154522  0.94467613     0.80700
N2539       N  0.56622734  0.72669411  0.93971821    -0.80000
C2540       C  0.58687642  0.72669651  0.91505969     0.80800
N2541       N  0.58807268  0.75209800  0.89570250    -0.81700
C2542       C  0.97639887  0.83736686  0.57667527     0.78200
N2543       N  0.00177977  0.83952100  0.59631633    -0.80100
C2544       C  0.52730660  0.82091004  0.59278010     0.80700
N2545       N  0.52685589  0.79912808  0.56873314    -0.80000
C2546       C  0.00213073  0.79607053  0.54893154     0.80800
N2547       N  0.97695944  0.81580452  0.55259401    -0.81700
C2548       C  0.91107696  0.77249928  0.57500496     0.78200
N2549       N  0.93332212  0.77227698  0.55177578    -0.80100
C2550       C  0.95317458  0.74703052  0.54846449     0.80700
N2551       N  0.94995792  0.72158331  0.56840240    -0.80000
C2552       C  0.92716336  0.72136116  0.59118985     0.80800
N2553       N  0.90853655  0.74701018  0.59412753    -0.81700
C2554       C  0.52655668  0.65828077  0.92120143     0.78200
N2555       N  0.52554081  0.68084331  0.94428050    -0.80100
C2556       C  0.49982752  0.69984371  0.94733774     0.80700
N2557       N  0.97552402  0.69434135  0.92860816    -0.80000
C2558       C  0.97558075  0.67078779  0.90646824     0.80800
N2559       N  0.50091106  0.65404881  0.90218158    -0.81700
C2560       C  0.90816291  0.67437772  0.97252395     0.78200
N2561       N  0.93212784  0.69581005  0.97265503    -0.80100
C2562       C  0.95227288  0.69800038  0.99812007     0.80700
N2563       N  0.94834538  0.67925112  0.52333261    -0.80000
C2564       C  0.92444518  0.65765512  0.52388451     0.80800
N2565       N  0.90430321  0.65589112  0.99847838    -0.81700
C2566       C  0.77342688  0.72444231  0.75047881     0.00300
C2567       C  0.75003894  0.72536744  0.77518764     0.00300
C2568       C  0.72709970  0.75025479  0.77592979     0.00300
C2569       C  0.72694940  0.77349334  0.75117720     0.00300
C2570       C  0.74987136  0.77216597  0.72611181     0.00300
C2571       C  0.77344648  0.74803746  0.72611867     0.00300
C2572       C  0.77440412  0.67120865  0.84108697     0.78200
N2573       N  0.74795490  0.65316354  0.84376263    -0.80100
C2574       C  0.72216322  0.65761893  0.82531003     0.80700
N2575       N  0.72323138  0.68063618  0.80291337    -0.80000
C2576       C  0.74926588  0.69975986  0.79999707     0.80800
N2577       N  0.77469641  0.69501295  0.81948318    -0.81700
C2578       C  0.66307210  0.82839436  0.72526548     0.78200
N2579       N  0.66276328  0.84856088  0.75047731    -0.80100
C2580       C  0.68078775  0.84464740  0.77672711     0.80700
N2581       N  0.70137589  0.82019364  0.77689022    -0.80000
C2582       C  0.70301034  0.79963633  0.75145595     0.76600
N2583       N  0.68319341  0.80355842  0.72591937    -0.81700
C2584       C  0.84124619  0.77388305  0.67506363     0.78200
N2585       N  0.84475424  0.74779259  0.65657270    -0.80100
C2586       C  0.82610700  0.72187116  0.65919557     0.80700
N2587       N  0.80263857  0.72219246  0.68124477    -0.80000
C2588       C  0.79876261  0.74798086  0.70094029     0.80800
N2589       N  0.81837852  0.77372141  0.69771874    -0.81700
C2590       C  0.72359619  0.82062170  0.65626599     0.78200
N2591       N  0.74962799  0.83904220  0.65231126    -0.80100
C2592       C  0.77526093  0.83746193  0.67154375     0.80700
N2593       N  0.77486491  0.81626306  0.69569661    -0.80000
C2594       C  0.74950397  0.79640710  0.69986196     0.80800
N2595       N  0.72387805  0.79883430  0.68000209    -0.81700
C2596       C  0.67775528  0.77827409  0.84512496     0.78200
N2597       N  0.69951354  0.77772605  0.82125539    -0.80100
C2598       C  0.70276851  0.75139498  0.80226425     0.80700
N2599       N  0.68330335  0.72600057  0.80724177    -0.80000
C2600       C  0.66230602  0.72600777  0.83163918     0.80800
N2601       N  0.66024645  0.75195192  0.85051321    -0.81700
C2602       C  0.84085248  0.67345774  0.77609268     0.78200
N2603       N  0.84386171  0.65478712  0.74993694    -0.80100
C2604       C  0.82507378  0.65707686  0.72403088     0.80700
N2605       N  0.80191233  0.67918740  0.72448564    -0.80000
C2606       C  0.79838510  0.69903922  0.75038750     0.80800
N2607       N  0.81814067  0.69596418  0.77609078    -0.81700
C2608       C  0.52362449  0.99870419  0.77270696     0.00300
C2609       C  0.52479617  0.97562414  0.74777322     0.00300
C2610       C  0.50061699  0.97503308  0.72421791     0.00300
C2611       C  0.97571645  0.99804445  0.72478862     0.00300
C2612       C  0.97560781  0.52172873  0.74904275     0.00300
C2613       C  0.49891266  0.52239694  0.77308387     0.00300
C2614       C  0.52228219  0.58938131  0.82657261     0.78200
N2615       N  0.49702727  0.59014591  0.84633674    -0.80100
C2616       C  0.97180491  0.56954965  0.84316009     0.80700
N2617       N  0.97258440  0.54749194  0.81952369    -0.80000
C2618       C  0.49807400  0.54675795  0.79896907     0.80800
N2619       N  0.52257121  0.56768317  0.80263188    -0.81700
C2620       C  0.58997350  0.52493074  0.82485671     0.78200
N2621       N  0.56744412  0.52512064  0.80195352    -0.80100
C2622       C  0.54802121  0.99879015  0.79833616     0.80700
N2623       N  0.55109869  0.97309528  0.81781029    -0.80000
C2624       C  0.57401334  0.97281242  0.84033667     0.80800
N2625       N  0.59282707  0.99844533  0.84351795    -0.81700
C2626       C  0.58047901  0.91211262  0.77238169     0.78200
N2627       N  0.55562613  0.93206776  0.77204033    -0.80100
C2628       C  0.55115620  0.95187859  0.74678571     0.80700
N2629       N  0.57106710  0.95010201  0.72097985    -0.80000
C2630       C  0.59559727  0.92950967  0.72087857     0.80800
N2631       N  0.60018551  0.91175777  0.74708582    -0.81700
C2632       C  0.92528352  0.58912237  0.72334207     0.78200
N2633       N  0.94795212  0.56665666  0.72352100    -0.80100
C2634       C  0.95063035  0.54666036  0.74896876     0.80700
N2635       N  0.93041338  0.54958860  0.77431434    -0.80000
C2636       C  0.90800212  0.57230498  0.77434512     0.80800
N2637       N  0.90601534  0.59142765  0.74883197    -0.81700
C2638       C  0.92537504  0.52340146  0.65702062     0.78200
N2639       N  0.90628982  0.99781730  0.65384983    -0.80100
C2640       C  0.90846424  0.97222188  0.67306966     0.80700
N2641       N  0.93081869  0.97257255  0.69617053    -0.80000
C2642       C  0.95104872  0.99782170  0.69928904     0.80800
N2643       N  0.94852188  0.52305039  0.67928773    -0.81700
C2644       C  0.97371692  0.90523966  0.67597454     0.78200
N2645       N  0.49986822  0.90122001  0.65749540    -0.80100
C2646       C  0.52543082  0.92065763  0.65904999     0.80700
N2647       N  0.52517261  0.94509825  0.68005506    -0.80000
C2648       C  0.50001925  0.94928021  0.69989454     0.80800
N2649       N  0.97390153  0.92893897  0.69792948    -0.81700
O2650       O  0.62154532  0.57381585  0.82547257    -0.82100
O2651       O  0.62796894  0.67929713  0.82818243    -0.82200
O2652       O  0.55587483  0.59725462  0.86825881    -0.82200
O2653       O  0.68785246  0.65471059  0.86773156    -0.82100
O2654       O  0.57008865  0.62265323  0.82395639    -0.82200
O2655       O  0.67275505  0.62632316  0.82494345    -0.82200
O2656       O  0.65705707  0.68939395  0.87193960    -0.82100
O2657       O  0.59842927  0.55473969  0.86913199    -0.82200
C2658       C  0.60325001  0.55370024  0.83927859     1.07600
C2659       C  0.64803509  0.69667747  0.84379687     1.07400
C2660       C  0.55145867  0.60383483  0.83912381     1.07600
C2661       C  0.69209180  0.64590076  0.83876550     1.07500
O2662       O  0.69416264  0.59900859  0.88110162    -0.82100
O2663       O  0.56171358  0.65416675  0.87968772    -0.82200
O2664       O  0.62760704  0.57623576  0.92599576    -0.82200
O2665       O  0.62191519  0.68104852  0.91947647    -0.82100
O2666       O  0.59300857  0.68902094  0.87546246    -0.82200
O2667       O  0.65183966  0.55578027  0.88327094    -0.82100
O2668       O  0.67979159  0.62452979  0.92536248    -0.82100
O2669       O  0.57609083  0.62815636  0.92358339    -0.82200
Co2670     Co  0.65713545  0.59078635  0.85322474     1.51500
Co2671     Co  0.59950486  0.64836763  0.85196393     1.51700
Co2672     Co  0.59243991  0.59136447  0.89716714     1.51600
Co2673     Co  0.65067529  0.64953627  0.89663235     1.51500
O2674       O  0.62490684  0.61844763  0.87481665    -1.44100
C2675       C  0.69804083  0.60505464  0.91054739     1.07500
C2676       C  0.55679511  0.64640351  0.90866443     1.07600
C2677       C  0.64596534  0.55561366  0.91303773     1.07500
C2678       C  0.60180195  0.69745516  0.90346079     1.07500
O2679       O  0.88306748  0.55535462  0.65089076    -0.82100
O2680       O  0.88358461  0.69037650  0.59842664    -0.82200
O2681       O  0.92554358  0.62709661  0.57457268    -0.82200
O2682       O  0.92580232  0.61958235  0.67317100    -0.82100
O2683       O  0.88200747  0.64927693  0.55609048    -0.82200
O2684       O  0.88241151  0.59703225  0.69229298    -0.82200
O2685       O  0.92645980  0.67120572  0.62145060    -0.82100
O2686       O  0.92624498  0.57425012  0.62730495    -0.82200
C2687       C  0.91222073  0.55323790  0.64465502     1.07600
C2688       C  0.91297846  0.69200276  0.60392057     1.07400
C2689       C  0.91130516  0.64421062  0.55371188     1.07600
C2690       C  0.91182287  0.60217097  0.69394873     1.07500
O2691       O  0.82540390  0.62600336  0.67321044    -0.82100
O2692       O  0.82538090  0.61937404  0.57670873    -0.82200
O2693       O  0.86980746  0.55461146  0.59742183    -0.82200
O2694       O  0.86937731  0.69097346  0.65149643    -0.82100
O2695       O  0.82612722  0.67134616  0.62883347    -0.82200
O2696       O  0.82629800  0.57282044  0.62040984    -0.82100
O2697       O  0.86843914  0.64954376  0.69276448    -0.82100
O2698       O  0.86821062  0.59639782  0.55686184    -0.82200
Co2699     Co  0.85396265  0.59136483  0.65565164     1.51500
Co2700     Co  0.85404639  0.65415289  0.59350716     1.51700
Co2701     Co  0.89781343  0.59176397  0.59263819     1.51600
Co2702     Co  0.89778947  0.65433865  0.65627126     1.51500
O2703       O  0.87593146  0.62284143  0.62450168    -1.44100
C2704       C  0.83902647  0.64388338  0.69433629     1.07500
C2705       C  0.83892658  0.60200976  0.55547621     1.07600
C2706       C  0.84064332  0.55192232  0.60320311     1.07500
C2707       C  0.84000064  0.69251629  0.64619946     1.07500
O2708       O  0.67282103  0.82168203  0.62613217    -0.82100
O2709       O  0.57811715  0.82212314  0.62285120    -0.82200
O2710       O  0.65277881  0.87028304  0.69319271    -0.82200
O2711       O  0.59940491  0.86900869  0.55577239    -0.82100
O2712       O  0.63119857  0.82572406  0.67530502    -0.82200
O2713       O  0.62006379  0.82468563  0.57367287    -0.82200
O2714       O  0.55893189  0.86441969  0.59818493    -0.82100
O2715       O  0.69303612  0.86435478  0.65065528    -0.82200
C2716       C  0.69403066  0.83489243  0.64418555     1.07600
C2717       C  0.55717002  0.83516951  0.60485496     1.07400
C2718       C  0.64841850  0.84079830  0.69584779     1.07600
C2719       C  0.60340159  0.83954539  0.55302108     1.07500
O2720       O  0.65190704  0.88307602  0.55752992    -0.82100
O2721       O  0.60060616  0.88459155  0.69109993    -0.82200
O2722       O  0.67756529  0.92188077  0.61854848    -0.82200
O2723       O  0.57591521  0.92243315  0.62973695    -0.82100
O2724       O  0.55772303  0.87850772  0.65163370    -0.82200
O2725       O  0.69466889  0.87720804  0.59719476    -0.82100
O2726       O  0.62794235  0.92528825  0.57854509    -0.82100
O2727       O  0.62541832  0.92639101  0.67021736    -0.82200
Co2728     Co  0.65618974  0.85135809  0.59201812     1.51500
Co2729     Co  0.59558367  0.85230028  0.65683647     1.51700
Co2730     Co  0.65874884  0.89591128  0.65461150     1.51600
Co2731     Co  0.59403213  0.89546436  0.59409961     1.51500
O2732       O  0.62613633  0.87365024  0.62439836    -1.44100
C2733       C  0.64563590  0.91254237  0.55710996     1.07500
C2734       C  0.60715022  0.91409176  0.69145318     1.07600
C2735       C  0.69796008  0.90658336  0.60186016     1.07500
C2736       C  0.55495014  0.90769777  0.64619528     1.07500
loop_ 
_geom_bond_atom_site_label_1 
_geom_bond_atom_site_label_2 
_geom_bond_distance 
_geom_bond_site_symmetry_2 
_ccdc_geom_bond_type 
O1            C9   1.281       .  A
O1          Co21   2.008       .  S
O2           C10   1.284       .  A
O2          Co22   2.021       .  S
O3           C11   1.268       .  A
O3          Co23   1.969       .  S
O4           C12   1.269       .  A
O4          Co24   1.983       .  S
O5           C11   1.289       .  A
O5          Co22   2.032       .  S
O6           C12   1.286       .  A
O6          Co21   2.017       .  S
O7           C10   1.267       .  A
O7          Co24   1.975       .  S
O8            C9   1.272       .  A
O8          Co23   1.993       .  S
C9          C202   1.470       .  S
C10         C108   1.466       .  S
C11         C186   1.477       .  S
C12         C126   1.466       .  S
O13          C26   1.263       .  A
O13         Co21   1.962       .  S
O14          C27   1.266       .  A
O14         Co22   1.976       .  S
O15          C28   1.286       .  A
O15         Co23   2.019       .  S
O16          C29   1.285       .  A
O16         Co24   2.013       .  S
O17          C29   1.273       .  A
O17         Co22   1.983       .  S
O18          C28   1.272       .  A
O18         Co21   1.990       .  S
O19          C26   1.286       .  A
O19         Co24   2.028       .  S
O20          C27   1.288       .  A
O20         Co23   2.038       .  S
Co21         O25   2.081       .  S
Co22         O25   2.088       .  S
Co23         O25   2.081       .  S
Co24         O25   2.093       .  S
C26         C136   1.471       .  S
C27         C232   1.477       .  S
C28         C142   1.476       .  S
C29         C230   1.465       .  S
O30          C38   1.290       .  A
O30         Co50   2.032       .  S
O31          C39   1.292       .  A
O31         Co51   2.033       .  S
O32          C40   1.269       .  A
O32         Co52   1.995       .  S
O33          C41   1.268       .  A
O33         Co53   1.988       .  S
O34          C40   1.291       .  A
O34         Co51   2.037       .  S
O35          C41   1.289       .  A
O35         Co50   2.032       .  S
O36          C39   1.269       .  A
O36         Co53   1.973       .  S
O37          C38   1.270       .  A
O37         Co52   1.977       .  S
C38         C208   1.476       .  S
C39         C166   1.477       .  S
C40         C178   1.486       .  S
C41         C164   1.481       .  S
O42          C55   1.270       .  A
O42         Co50   1.978       .  S
O43          C56   1.269       .  A
O43         Co51   1.971       .  S
O44          C57   1.285       .  A
O44         Co52   2.031       .  S
O45          C58   1.287       .  A
O45         Co53   2.029       .  S
O46          C58   1.265       .  A
O46         Co51   1.968       .  S
O47          C57   1.266       .  A
O47         Co50   1.967       .  S
O48          C55   1.286       .  A
O48         Co53   2.018       .  S
O49          C56   1.285       .  A
O49         Co52   2.015       .  S
Co50         O54   2.081       .  S
Co51         O54   2.082       .  S
Co52         O54   2.096       .  S
Co53         O54   2.093       .  S
C55         C222   1.471       .  S
C56         C116   1.468       .  S
C57         C242   1.471       .  S
C58         C102   1.469       .  S
O59          C67   1.294       .  A
O59         Co79   2.043       .  S
O60          C68   1.289       .  A
O60         Co80   2.026       .  S
O61          C69   1.270       .  A
O61         Co81   1.981       .  S
O62          C70   1.266       .  A
O62         Co82   1.973       .  S
O63          C69   1.288       .  A
O63         Co80   2.031       .  S
O64          C70   1.294       .  A
O64         Co79   2.040       .  S
O65          C68   1.268       .  A
O65         Co82   1.975       .  S
O66          C67   1.269       .  A
O66         Co81   1.984       .  S
C67         C198   1.487       .  S
C68         C250   1.474       .  S
C69         C190   1.477       .  S
C70         C246   1.481       .  S
O71          C84   1.268       .  A
O71         Co79   1.976       .  S
O72          C85   1.268       .  A
O72         Co80   1.977       .  S
O73          C86   1.291       .  A
O73         Co81   2.038       .  S
O74          C87   1.295       .  A
O74         Co82   2.043       .  S
O75          C87   1.267       .  A
O75         Co80   1.983       .  S
O76          C86   1.269       .  A
O76         Co79   1.976       .  S
O77          C84   1.295       .  A
O77         Co82   2.045       .  S
O78          C85   1.290       .  A
O78         Co81   2.034       .  S
Co79         O83   2.088       .  S
Co80         O83   2.096       .  S
Co81         O83   2.091       .  S
Co82         O83   2.091       .  S
C84          C98   1.488       .  S
C85         C154   1.477       .  S
C86         C120   1.483       .  S
C87         C148   1.485       .  S
C88          C96   1.498       .  S
C88          C89   1.423       .  A
C88         C777   1.431   1_554  A
C89         C122   1.506       .  S
C89          C90   1.429       .  A
C90         C128   1.497       .  S
C90         C433   1.433   1_554  A
C91         C110   1.498       .  S
C91         C432   1.430       .  A
C91         C776   1.421       .  A
C92         C114   1.499       .  S
C92         C775   1.421   1_545  A
C92         C435   1.424       .  A
C93         C446   1.488       .  S
C93         C772   1.430   1_546  A
C93         C434   1.426       .  A
C94         C312   1.475       .  S
C94          N95   1.352       .  A
C94         N783   1.358   1_545  A
N95         C780   1.367   1_545  A
C96          N97   1.374       .  A
C96         N779   1.366       .  A
N97          C98   1.361       .  A
C98          N99   1.360       .  A
N99         C778   1.359       .  A
C100        C311   1.466       .  S
C100        N105   1.355       .  A
C100        N443   1.351       .  A
N101        C102   1.353       .  A
N101        C442   1.352       .  A
C102        N103   1.355       .  A
N103        C104   1.368       .  A
C104        C435   1.489       .  S
C104        N447   1.369       .  A
N105        C446   1.369   1_554  A
C106        C283   1.470       .  S
C106        N111   1.361       .  A
C106        N791   1.348       .  A
N107        C108   1.348       .  A
N107        C790   1.348       .  A
C108        N109   1.353       .  A
N109        C110   1.369       .  A
C110        N795   1.374       .  A
N111        C794   1.374       .  A
C112        C281   1.479       .  S
C112        N113   1.358       .  A
C112        N117   1.354       .  A
N113        C114   1.372       .  A
C114        N115   1.370       .  A
N115        C116   1.354       .  A
C116        N117   1.354       .  A
C118        C341   1.475       .  S
C118        N119   1.355       .  A
C118        N123   1.353       .  A
N119        C120   1.355       .  A
C120        N121   1.362       .  A
N121        C122   1.375       .  A
C122        N123   1.367       .  A
C124        C339   1.472       .  S
C124        N129   1.360       .  A
C124        N467   1.352       .  A
N125        C126   1.352       .  A
N125        C466   1.352       .  A
C126        N127   1.352       .  A
N127        C470   1.365       .  A
C128        N129   1.373       .  A
C128        N469   1.366   1_554  A
C130        C144   1.516       .  S
C130        C135   1.428       .  A
C130       C1499   1.433   1_455  A
C131       C1530   1.496       .  S
C131        C132   1.432       .  A
C131       C1498   1.434       .  A
C132        C168   1.504       .  S
C132        C475   1.428       .  A
C133        C156   1.508       .  S
C133        C134   1.428       .  A
C133        C474   1.426   1_554  A
C134        C152   1.499       .  S
C134       C1845   1.430   1_554  A
C135        C138   1.493       .  S
C135       C1844   1.430       .  A
C136        N137   1.355       .  A
C136        N483   1.354       .  A
N137        C138   1.369       .  A
C138        N481   1.371       .  A
N139        C140   1.356       .  A
N139        C480   1.371   1_554  A
C140        C325   1.480       .  S
C140        N141   1.355   1_554  A
N141        C478   1.355       .  A
C142        N143   1.365       .  A
C142        N147   1.356       .  A
N143        C144   1.374       .  A
C144        N145   1.368       .  A
N145        C146   1.358       .  A
C146        C284   1.476       .  S
C146        N147   1.352       .  A
C148        N149   1.360       .  A
C148        N153   1.355       .  A
N149       C1518   1.360       .  A
C150        C323   1.487       .  S
C150        N151   1.360       .  A
C150       N1517   1.360       .  A
N151       C1520   1.373       .  A
C152        N153   1.369       .  A
C152       N1519   1.373       .  A
C154        N155   1.357       .  A
C154        N159   1.352       .  A
N155        C156   1.372       .  A
C156        N157   1.375       .  A
N157        C158   1.361       .  A
C158        C294   1.480       .  S
C158        N159   1.352       .  A
C160        C282   1.474       .  S
C160        N161   1.353       .  A
C160        N165   1.358       .  A
N161        C162   1.365   1_455  A
C162       C1499   1.494       .  S
C162       N1531   1.369       .  A
N163        C164   1.358       .  A
N163       C1530   1.369       .  A
C164       N1533   1.359       .  A
N165       C1532   1.359   1_455  A
C166        N167   1.357       .  A
C166        N171   1.356       .  A
N167        C168   1.371       .  A
C168        N511   1.373       .  A
N169        C170   1.359       .  A
N169        C510   1.373   1_554  A
C170        C295   1.483       .  S
C170        N513   1.355   1_554  A
N171        C512   1.356       .  A
C172        C212   1.515       .  S
C172        C173   1.437       .  A
C172        C177   1.434       .  A
C173        C182   1.510       .  S
C173        C174   1.440       .  A
C174        C204   1.512       .  S
C174        C175   1.436       .  A
C175        C188   1.508       .  S
C175        C176   1.434       .  A
C176        C200   1.510       .  S
C176        C177   1.434       .  A
C177        C194   1.507       .  S
C178        N179   1.358       .  A
C178        N183   1.359       .  A
N179        C180   1.358       .  A
C180        C267   1.482       .  S
C180        N181   1.360       .  A
N181        C182   1.371       .  A
C182        N183   1.371       .  A
C184        C324   1.485       .  S
C184        N185   1.354       .  A
C184        N189   1.359       .  A
N185        C186   1.353       .  A
C186        N187   1.360       .  A
N187        C188   1.373       .  A
C188        N189   1.374       .  A
C190        N191   1.352       .  A
C190        N195   1.359       .  A
N191        C192   1.351       .  A
C192        C313   1.477       .  S
C192        N193   1.359       .  A
N193        C194   1.373       .  A
C194        N195   1.373       .  A
C196        C322   1.488       .  S
C196        N197   1.357       .  A
C196        N201   1.362       .  A
N197        C198   1.357       .  A
C198        N199   1.359       .  A
N199        C200   1.372       .  A
C200        N201   1.375       .  A
C202        N203   1.363       .  A
C202        N207   1.355       .  A
N203        C204   1.371       .  A
C204        N205   1.364       .  A
N205        C206   1.355       .  A
C206        C265   1.470       .  S
C206        N207   1.352       .  A
C208        N209   1.352       .  A
C208        N213   1.359       .  A
N209        C210   1.352       .  A
C210        C310   1.485       .  S
C210        N211   1.364       .  A
N211        C212   1.377       .  A
C212        N213   1.372       .  A
C214        C228   1.491       .  S
C214        C215   1.428       .  A
C214        C903   1.428   1_455  A
C215        C234   1.513       .  S
C215        C216   1.427       .  A
C216        C254   1.491   1_455  S
C216       C1585   1.429   1_455  A
C217        C248   1.497       .  S
C217       C1584   1.428       .  A
C217        C902   1.426       .  A
C218        C240   1.501       .  S
C218        C901   1.426   1_545  A
C218       C1587   1.425       .  A
C219        C224   1.501   1_455  S
C219        C898   1.428   1_545  A
C219       C1586   1.425   1_455  A
C220        C266   1.477       .  S
C220        N221   1.354   1_455  A
C220        N225   1.359       .  A
N221       C1590   1.354       .  A
C222        N223   1.356       .  A
C222       N1589   1.354       .  A
N223       C1592   1.370       .  A
C224        N225   1.371   1_655  A
C224       N1591   1.370       .  A
C226        C264   1.461       .  S
C226        N227   1.355       .  A
C226        N915   1.348   1_545  A
N227        C912   1.369   1_545  A
C228        N229   1.370       .  A
C228        N911   1.369       .  A
N229        C230   1.355       .  A
C230        N231   1.347       .  A
N231        C910   1.348       .  A
C232        N233   1.358       .  A
C232        N237   1.351       .  A
N233        C234   1.371       .  A
C234        N235   1.376       .  A
N235        C236   1.363       .  A
C236        C340   1.477       .  S
C236        N237   1.351       .  A
C238        C296   1.470       .  S
C238        N239   1.357       .  A
C238        N243   1.349       .  A
N239        C240   1.371       .  A
C240        N241   1.372       .  A
N241        C242   1.358       .  A
C242        N243   1.349       .  A
C244        C293   1.482       .  S
C244        N249   1.356       .  A
C244        N929   1.358   1_545  A
N245        C246   1.359       .  A
N245        C928   1.360       .  A
C246        N247   1.356       .  A
N247        C248   1.370       .  A
C248        N933   1.370       .  A
N249        C932   1.371   1_545  A
C250        N255   1.356       .  A
C250       N1619   1.357       .  A
N251        C252   1.356       .  A
N251       C1618   1.357   1_455  A
C252        C342   1.473       .  S
C252        N253   1.353       .  A
N253        C254   1.366   1_455  A
C254       N1623   1.368       .  A
N255       C1622   1.369       .  A
O256        C264   1.287       .  A
O256       Co276   2.029       .  S
O257        C265   1.296       .  A
O257       Co277   2.042       .  S
O258        C266   1.272       .  A
O258       Co278   1.992       .  S
O259        C267   1.281       .  A
O259       Co279   2.005       .  S
O260        C266   1.290       .  A
O260       Co277   2.023       .  S
O261        C267   1.294       .  A
O261       Co276   2.028       .  S
O262        C265   1.282       .  A
O262       Co279   2.000       .  S
O263        C264   1.268       .  A
O263       Co278   1.955       .  S
O268        C281   1.268       .  A
O268       Co276   1.983       .  S
O269        C282   1.278       .  A
O269       Co277   1.996       .  S
O270        C283   1.291       .  A
O270       Co278   2.031       .  S
O271        C284   1.296       .  A
O271       Co279   2.050       .  S
O272        C284   1.279       .  A
O272       Co277   1.994       .  S
O273        C283   1.275       .  A
O273       Co276   1.965       .  S
O274        C281   1.290       .  A
O274       Co279   2.030       .  S
O275        C282   1.293       .  A
O275       Co278   2.026       .  S
Co276       O280   2.014       .  S
Co277       O280   1.929       .  S
Co278       O280   2.022       .  S
Co279       O280   1.928       .  S
O285        C293   1.269       .  A
O285       Co305   1.979       .  S
O286        C294   1.271       .  A
O286       Co306   1.982       .  S
O287        C295   1.292       .  A
O287       Co307   2.041       .  S
O288        C296   1.286       .  A
O288       Co308   2.027       .  S
O289        C295   1.268       .  A
O289       Co306   1.978       .  S
O290        C296   1.267       .  A
O290       Co305   1.967       .  S
O291        C294   1.289       .  A
O291       Co308   2.032       .  S
O292        C293   1.294       .  A
O292       Co307   2.037       .  S
O297        C310   1.292       .  A
O297       Co305   2.039       .  S
O298        C311   1.287       .  A
O298       Co306   2.019       .  S
O299        C312   1.265       .  A
O299       Co307   1.969       .  S
O300        C313   1.268       .  A
O300       Co308   1.980       .  S
O301        C313   1.287       .  A
O301       Co306   2.031       .  S
O302        C312   1.292       .  A
O302       Co305   2.035       .  S
O303        C310   1.273       .  A
O303       Co308   1.987       .  S
O304        C311   1.270       .  A
O304       Co307   1.972       .  S
Co305       O309   2.088       .  S
Co306       O309   2.087       .  S
Co307       O309   2.088       .  S
Co308       O309   2.085       .  S
O314        C322   1.297       .  A
O314       Co334   2.042       .  S
O315        C323   1.297       .  A
O315       Co335   2.041       .  S
O316        C324   1.264       .  A
O316       Co336   1.970       .  S
O317        C325   1.262       .  A
O317       Co337   1.962       .  S
O318        C324   1.292       .  A
O318       Co335   2.051       .  S
O319        C325   1.290       .  A
O319       Co334   2.046       .  S
O320        C323   1.272       .  A
O320       Co337   1.986       .  S
O321        C322   1.274       .  A
O321       Co336   1.989       .  S
O326        C339   1.276       .  A
O326       Co334   1.989       .  S
O327        C340   1.275       .  A
O327       Co335   1.983       .  S
O328        C341   1.288       .  A
O328       Co336   2.035       .  S
O329        C342   1.287       .  A
O329       Co337   2.028       .  S
O330        C342   1.264       .  A
O330       Co335   1.975       .  S
O331        C341   1.262       .  A
O331       Co334   1.970       .  S
O332        C339   1.290       .  A
O332       Co337   2.020       .  S
O333        C340   1.291       .  A
O333       Co336   2.027       .  S
Co334       O338   2.088       .  S
Co335       O338   2.086       .  S
Co336       O338   2.089       .  S
Co337       O338   2.088       .  S
O343        C351   1.281       .  A
O343       Co363   2.008       .  S
O344        C352   1.283       .  A
O344       Co364   2.013       .  S
O345        C353   1.268       .  A
O345       Co365   1.970       .  S
O346        C354   1.269       .  A
O346       Co366   1.981       .  S
O347        C353   1.287       .  A
O347       Co364   2.027       .  S
O348        C354   1.286       .  A
O348       Co363   2.020       .  S
O349        C352   1.269       .  A
O349       Co366   1.975       .  S
O350        C351   1.272       .  A
O350       Co365   1.991       .  S
C351        C544   1.469       .  S
C352        C450   1.461       .  S
C353        C528   1.474       .  S
C354        C468   1.466       .  S
O355        C368   1.263       .  A
O355       Co363   1.961       .  S
O356        C369   1.266       .  A
O356       Co364   1.976       .  S
O357        C370   1.285       .  A
O357       Co365   2.017       .  S
O358        C371   1.285       .  A
O358       Co366   2.018       .  S
O359        C371   1.272       .  A
O359       Co364   1.981       .  S
O360        C370   1.273       .  A
O360       Co363   1.992       .  S
O361        C368   1.288       .  A
O361       Co366   2.033       .  S
O362        C369   1.288       .  A
O362       Co365   2.034       .  S
Co363       O367   2.080       .  S
Co364       O367   2.088       .  S
Co365       O367   2.081       .  S
Co366       O367   2.090       .  S
C368        C478   1.474       .  S
C369        C574   1.475       .  S
C370        C484   1.476       .  S
C371        C572   1.468       .  S
O372        C380   1.291       .  A
O372       Co392   2.034       .  S
O373        C381   1.291       .  A
O373       Co393   2.028       .  S
O374        C382   1.269       .  A
O374       Co394   1.994       .  S
O375        C383   1.267       .  A
O375       Co395   1.988       .  S
O376        C382   1.290       .  A
O376       Co393   2.035       .  S
O377        C383   1.290       .  A
O377       Co392   2.032       .  S
O378        C381   1.269       .  A
O378       Co395   1.972       .  S
O379        C380   1.271       .  A
O379       Co394   1.979       .  S
C380        C550   1.479       .  S
C381        C508   1.474       .  S
C382        C520   1.485       .  S
C383        C506   1.480       .  S
O384        C397   1.271       .  A
O384       Co392   1.979       .  S
O385        C398   1.270       .  A
O385       Co393   1.974       .  S
O386        C399   1.286       .  A
O386       Co394   2.033       .  S
O387        C400   1.286       .  A
O387       Co395   2.027       .  S
O388        C400   1.265       .  A
O388       Co393   1.969       .  S
O389        C399   1.265       .  A
O389       Co392   1.963       .  S
O390        C397   1.286       .  A
O390       Co395   2.014       .  S
O391        C398   1.286       .  A
O391       Co394   2.018       .  S
Co392       O396   2.080       .  S
Co393       O396   2.082       .  S
Co394       O396   2.094       .  S
Co395       O396   2.094       .  S
C397        C564   1.469       .  S
C398        C458   1.469       .  S
C399        C584   1.472       .  S
C400        C444   1.468       .  S
O401        C409   1.293       .  A
O401       Co421   2.040       .  S
O402        C410   1.289       .  A
O402       Co422   2.025       .  S
O403        C411   1.269       .  A
O403       Co423   1.980       .  S
O404        C412   1.267       .  A
O404       Co424   1.972       .  S
O405        C411   1.289       .  A
O405       Co422   2.030       .  S
O406        C412   1.293       .  A
O406       Co421   2.037       .  S
O407        C410   1.268       .  A
O407       Co424   1.974       .  S
O408        C409   1.269       .  A
O408       Co423   1.983       .  S
C409        C540   1.484       .  S
C410        C592   1.472       .  S
C411        C532   1.476       .  S
C412        C588   1.479       .  S
O413        C426   1.268       .  A
O413       Co421   1.976       .  S
O414        C427   1.268       .  A
O414       Co422   1.976       .  S
O415        C428   1.291       .  A
O415       Co423   2.037       .  S
O416        C429   1.294       .  A
O416       Co424   2.042       .  S
O417        C429   1.267       .  A
O417       Co422   1.981       .  S
O418        C428   1.268       .  A
O418       Co421   1.974       .  S
O419        C426   1.294       .  A
O419       Co424   2.041       .  S
O420        C427   1.290       .  A
O420       Co423   2.034       .  S
Co421       O425   2.087       .  S
Co422       O425   2.094       .  S
Co423       O425   2.090       .  S
Co424       O425   2.089       .  S
C426        C440   1.484       .  S
C427        C496   1.477       .  S
C428        C462   1.482       .  S
C429        C490   1.484       .  S
C430        C438   1.497       .  S
C430        C431   1.422       .  A
C430       C1119   1.427       .  A
C431        C464   1.501       .  S
C431        C432   1.428       .  A
C432        C470   1.494       .  S
C433        C452   1.494       .  S
C433       C1118   1.423       .  A
C434        C456   1.510       .  S
C434       C1117   1.423   1_545  A
C435       C1114   1.426   1_545  A
C436        C654   1.477       .  S
C436        N437   1.353       .  A
C436       N1125   1.358   1_545  A
N437       C1122   1.367   1_545  A
C438       N1121   1.367       .  A
C438        N439   1.372       .  A
N439        C440   1.359       .  A
C440        N441   1.359       .  A
N441       C1120   1.358       .  A
C442        C653   1.469       .  S
C442        N447   1.355       .  A
N443        C444   1.352   1_554  A
C444        N445   1.355       .  A
N445        C446   1.368       .  A
C448        C625   1.469       .  S
C448       N1133   1.349       .  A
C448        N453   1.359       .  A
N449       C1132   1.348       .  A
N449        C450   1.346       .  A
C450        N451   1.352       .  A
N451        C452   1.367       .  A
C452       N1137   1.373       .  A
N453       C1136   1.373       .  A
C454        C623   1.485       .  S
C454        N455   1.363       .  A
C454        N459   1.353       .  A
N455        C456   1.377       .  A
C456        N457   1.371       .  A
N457        C458   1.356       .  A
C458        N459   1.352       .  A
C460        C683   1.474       .  S
C460        N461   1.355       .  A
C460        N465   1.352       .  A
N461        C462   1.355       .  A
C462        N463   1.361       .  A
N463        C464   1.374       .  A
C464        N465   1.367       .  A
C466        C681   1.471       .  S
C466        N471   1.359       .  A
N467        C468   1.351   1_554  A
C468        N469   1.353       .  A
C470        N471   1.371       .  A
C472        C486   1.514       .  S
C472       C1841   1.433   1_455  A
C472        C477   1.427       .  A
C473       C1872   1.494       .  S
C473       C1840   1.432       .  A
C473        C474   1.432       .  A
C474        C510   1.502       .  S
C475        C498   1.505       .  S
C475        C476   1.429       .  A
C476        C494   1.502       .  S
C476       C1503   1.430       .  A
C477        C480   1.494       .  S
C477       C1502   1.430   1_556  A
C478        N479   1.356       .  A
N479        C480   1.370       .  A
N481        C482   1.356       .  A
C482        C667   1.478       .  S
C482        N483   1.354       .  A
C484        N485   1.365       .  A
C484        N489   1.356       .  A
N485        C486   1.374       .  A
C486        N487   1.365       .  A
N487        C488   1.356       .  A
C488        C626   1.473       .  S
C488        N489   1.353       .  A
C490        N491   1.359       .  A
C490        N495   1.355       .  A
N491       C1860   1.359       .  A
C492        C665   1.486       .  S
C492       N1859   1.360       .  A
C492        N493   1.359       .  A
N493       C1862   1.373       .  A
C494       N1861   1.374       .  A
C494        N495   1.369       .  A
C496        N497   1.357       .  A
C496        N501   1.353       .  A
N497        C498   1.372       .  A
C498        N499   1.374       .  A
N499        C500   1.360       .  A
C500        C636   1.480       .  S
C500        N501   1.353       .  A
C502        C624   1.479       .  S
C502        N503   1.355       .  A
C502        N507   1.360       .  A
N503        C504   1.367       .  A
C504       C1841   1.494   1_455  S
C504       N1873   1.368   1_455  A
N505       C1872   1.368       .  A
N505        C506   1.356       .  A
C506       N1875   1.360       .  A
N507       C1874   1.361   1_455  A
C508        N509   1.356       .  A
C508        N513   1.355       .  A
N509        C510   1.370       .  A
N511        C512   1.359       .  A
C512        C637   1.485       .  S
C514        C554   1.515       .  S
C514        C515   1.436       .  A
C514        C519   1.434       .  A
C515        C524   1.508       .  S
C515        C516   1.440       .  A
C516        C546   1.513       .  S
C516        C517   1.436       .  A
C517        C530   1.508       .  S
C517        C518   1.433       .  A
C518        C542   1.511       .  S
C518        C519   1.435       .  A
C519        C536   1.506       .  S
C520        N521   1.357       .  A
C520        N525   1.361       .  A
N521        C522   1.356       .  A
C522        C609   1.478       .  S
C522        N523   1.358       .  A
N523        C524   1.369       .  A
C524        N525   1.372       .  A
C526        C666   1.484       .  S
C526        N527   1.352       .  A
C526        N531   1.360       .  A
N527        C528   1.352       .  A
C528        N529   1.359       .  A
N529        C530   1.372       .  A
C530        N531   1.374       .  A
C532        N533   1.352       .  A
C532        N537   1.358       .  A
N533        C534   1.352       .  A
C534        C655   1.479       .  S
C534        N535   1.360       .  A
N535        C536   1.373       .  A
C536        N537   1.372       .  A
C538        C664   1.488       .  S
C538        N539   1.357       .  A
C538        N543   1.362       .  A
N539        C540   1.357       .  A
C540        N541   1.358       .  A
N541        C542   1.371       .  A
C542        N543   1.375       .  A
C544        N545   1.362       .  A
C544        N549   1.354       .  A
N545        C546   1.371       .  A
C546        N547   1.367       .  A
N547        C548   1.357       .  A
C548        C607   1.472       .  S
C548        N549   1.351       .  A
C550        N551   1.353       .  A
C550        N555   1.360       .  A
N551        C552   1.352       .  A
C552        C652   1.485       .  S
C552        N553   1.362       .  A
N553        C554   1.376       .  A
C554        N555   1.374       .  A
C556        C570   1.492       .  S
C556        C557   1.425       .  A
C556       C1245   1.427   1_455  A
C557        C576   1.510       .  S
C557        C558   1.425       .  A
C558        C596   1.486   1_455  S
C558       C1927   1.427   1_455  A
C559        C590   1.495       .  S
C559       C1926   1.427       .  A
C559       C1244   1.422       .  A
C560        C582   1.502       .  S
C560       C1243   1.423   1_545  A
C560       C1929   1.424       .  A
C561        C566   1.489       .  S
C561       C1240   1.426   1_645  A
C561       C1928   1.424       .  A
C562        C608   1.472       .  S
C562        N563   1.356   1_455  A
C562        N567   1.354       .  A
N563       C1932   1.356       .  A
C564       N1931   1.356       .  A
C564        N565   1.355       .  A
N565       C1934   1.369       .  A
C566       N1933   1.368       .  A
C566        N567   1.367   1_655  A
C568        C606   1.463       .  S
C568        N569   1.356       .  A
C568       N1257   1.348   1_545  A
N569       C1254   1.370   1_545  A
C570       N1253   1.369       .  A
C570        N571   1.372       .  A
N571        C572   1.356       .  A
C572        N573   1.346       .  A
N573       C1252   1.347       .  A
C574        N575   1.357       .  A
C574        N579   1.351       .  A
N575        C576   1.370       .  A
C576        N577   1.375       .  A
N577        C578   1.363       .  A
C578        C682   1.476       .  S
C578        N579   1.351       .  A
C580        C638   1.474       .  S
C580        N581   1.358       .  A
C580        N585   1.350       .  A
N581        C582   1.373       .  A
C582        N583   1.372       .  A
N583        C584   1.358       .  A
C584        N585   1.350       .  A
C586        C635   1.481       .  S
C586       N1271   1.358   1_545  A
C586        N591   1.356       .  A
N587       C1270   1.359       .  A
N587        C588   1.358       .  A
C588        N589   1.356       .  A
N589        C590   1.369       .  A
C590       N1275   1.370       .  A
N591       C1274   1.370   1_545  A
C592       N1961   1.356       .  A
C592        N597   1.355       .  A
N593       C1960   1.358       .  A
N593        C594   1.357   1_655  A
C594        C684   1.473       .  S
C594        N595   1.352       .  A
N595        C596   1.365   1_455  A
C596       N1965   1.367       .  A
N597       C1964   1.368       .  A
O598        C606   1.288       .  A
O598       Co618   2.030       .  S
O599        C607   1.295       .  A
O599       Co619   2.042       .  S
O600        C608   1.270       .  A
O600       Co620   1.988       .  S
O601        C609   1.281       .  A
O601       Co621   2.001       .  S
O602        C608   1.289       .  A
O602       Co619   2.020       .  S
O603        C609   1.294       .  A
O603       Co618   2.028       .  S
O604        C607   1.282       .  A
O604       Co621   2.001       .  S
O605        C606   1.270       .  A
O605       Co620   1.955       .  S
O610        C623   1.270       .  A
O610       Co618   1.988       .  S
O611        C624   1.279       .  A
O611       Co619   1.998       .  S
O612        C625   1.290       .  A
O612       Co620   2.033       .  S
O613        C626   1.296       .  A
O613       Co621   2.047       .  S
O614        C626   1.279       .  A
O614       Co619   1.995       .  S
O615        C625   1.272       .  A
O615       Co618   1.962       .  S
O616        C623   1.291       .  A
O616       Co621   2.036       .  S
O617        C624   1.295       .  A
O617       Co620   2.029       .  S
Co618       O622   2.018       .  S
Co619       O622   1.931       .  S
Co620       O622   2.019       .  S
Co621       O622   1.928       .  S
O627        C635   1.269       .  A
O627       Co647   1.978       .  S
O628        C636   1.270       .  A
O628       Co648   1.980       .  S
O629        C637   1.293       .  A
O629       Co649   2.044       .  S
O630        C638   1.288       .  A
O630       Co650   2.033       .  S
O631        C637   1.268       .  A
O631       Co648   1.978       .  S
O632        C638   1.267       .  A
O632       Co647   1.967       .  S
O633        C636   1.290       .  A
O633       Co650   2.033       .  S
O634        C635   1.294       .  A
O634       Co649   2.037       .  S
O639        C652   1.293       .  A
O639       Co647   2.041       .  S
O640        C653   1.288       .  A
O640       Co648   2.024       .  S
O641        C654   1.266       .  A
O641       Co649   1.973       .  S
O642        C655   1.269       .  A
O642       Co650   1.981       .  S
O643        C655   1.288       .  A
O643       Co648   2.032       .  S
O644        C654   1.292       .  A
O644       Co647   2.034       .  S
O645        C652   1.271       .  A
O645       Co650   1.984       .  S
O646        C653   1.269       .  A
O646       Co649   1.969       .  S
Co647       O651   2.088       .  S
Co648       O651   2.088       .  S
Co649       O651   2.090       .  S
Co650       O651   2.087       .  S
O656        C664   1.296       .  A
O656       Co676   2.042       .  S
O657        C665   1.296       .  A
O657       Co677   2.040       .  S
O658        C666   1.265       .  A
O658       Co678   1.971       .  S
O659        C667   1.263       .  A
O659       Co679   1.966       .  S
O660        C666   1.290       .  A
O660       Co677   2.046       .  S
O661        C667   1.289       .  A
O661       Co676   2.041       .  S
O662        C665   1.271       .  A
O662       Co679   1.984       .  S
O663        C664   1.273       .  A
O663       Co678   1.989       .  S
O668        C681   1.275       .  A
O668       Co676   1.989       .  S
O669        C682   1.275       .  A
O669       Co677   1.983       .  S
O670        C683   1.288       .  A
O670       Co678   2.034       .  S
O671        C684   1.287       .  A
O671       Co679   2.028       .  S
O672        C684   1.263       .  A
O672       Co677   1.973       .  S
O673        C683   1.262       .  A
O673       Co676   1.968       .  S
O674        C681   1.289       .  A
O674       Co679   2.018       .  S
O675        C682   1.290       .  A
O675       Co678   2.026       .  S
Co676       O680   2.087       .  S
Co677       O680   2.085       .  S
Co678       O680   2.090       .  S
Co679       O680   2.090       .  S
O685        C693   1.282       .  A
O685       Co705   2.011       .  S
O686        C694   1.284       .  A
O686       Co706   2.021       .  S
O687        C695   1.268       .  A
O687       Co707   1.969       .  S
O688        C696   1.269       .  A
O688       Co708   1.984       .  S
O689        C695   1.289       .  A
O689       Co706   2.033       .  S
O690        C696   1.286       .  A
O690       Co705   2.020       .  S
O691        C694   1.267       .  A
O691       Co708   1.976       .  S
O692        C693   1.272       .  A
O692       Co707   1.993       .  S
C693        C886   1.473       .  S
C694        C792   1.466       .  S
C695        C870   1.478       .  S
C696        C810   1.468       .  S
O697        C710   1.264       .  A
O697       Co705   1.962       .  S
O698        C711   1.265       .  A
O698       Co706   1.975       .  S
O699        C712   1.286       .  A
O699       Co707   2.018       .  S
O700        C713   1.283       .  A
O700       Co708   2.009       .  S
O701        C713   1.274       .  A
O701       Co706   1.983       .  S
O702        C712   1.272       .  A
O702       Co705   1.991       .  S
O703        C710   1.285       .  A
O703       Co708   2.025       .  S
O704        C711   1.289       .  A
O704       Co707   2.037       .  S
Co705       O709   2.081       .  S
Co706       O709   2.088       .  S
Co707       O709   2.081       .  S
Co708       O709   2.094       .  S
C710        C820   1.469       .  S
C711        C916   1.476       .  S
C712        C826   1.475       .  S
C713        C914   1.463       .  S
O714        C722   1.291       .  A
O714       Co734   2.033       .  S
O715        C723   1.292       .  A
O715       Co735   2.032       .  S
O716        C724   1.269       .  A
O716       Co736   1.995       .  S
O717        C725   1.268       .  A
O717       Co737   1.989       .  S
O718        C724   1.291       .  A
O718       Co735   2.036       .  S
O719        C725   1.289       .  A
O719       Co734   2.032       .  S
O720        C723   1.269       .  A
O720       Co737   1.973       .  S
O721        C722   1.270       .  A
O721       Co736   1.977       .  S
C722        C892   1.477       .  S
C723        C850   1.477       .  S
C724        C862   1.485       .  S
C725        C848   1.481       .  S
O726        C739   1.270       .  A
O726       Co734   1.978       .  S
O727        C740   1.270       .  A
O727       Co735   1.972       .  S
O728        C741   1.285       .  A
O728       Co736   2.030       .  S
O729        C742   1.286       .  A
O729       Co737   2.027       .  S
O730        C742   1.265       .  A
O730       Co735   1.967       .  S
O731        C741   1.266       .  A
O731       Co734   1.966       .  S
O732        C739   1.286       .  A
O732       Co737   2.016       .  S
O733        C740   1.285       .  A
O733       Co736   2.015       .  S
Co734       O738   2.080       .  S
Co735       O738   2.081       .  S
Co736       O738   2.095       .  S
Co737       O738   2.094       .  S
C739        C906   1.470       .  S
C740        C800   1.467       .  S
C741        C926   1.471       .  S
C742        C786   1.467       .  S
O743        C751   1.293       .  A
O743       Co763   2.043       .  S
O744        C752   1.289       .  A
O744       Co764   2.027       .  S
O745        C753   1.270       .  A
O745       Co765   1.981       .  S
O746        C754   1.267       .  A
O746       Co766   1.972       .  S
O747        C753   1.289       .  A
O747       Co764   2.030       .  S
O748        C754   1.293       .  A
O748       Co763   2.038       .  S
O749        C752   1.268       .  A
O749       Co766   1.975       .  S
O750        C751   1.268       .  A
O750       Co765   1.985       .  S
C751        C882   1.487       .  S
C752        C934   1.475       .  S
C753        C874   1.477       .  S
C754        C930   1.479       .  S
O755        C768   1.268       .  A
O755       Co763   1.974       .  S
O756        C769   1.268       .  A
O756       Co764   1.975       .  S
O757        C770   1.290       .  A
O757       Co765   2.035       .  S
O758        C771   1.295       .  A
O758       Co766   2.042       .  S
O759        C771   1.267       .  A
O759       Co764   1.981       .  S
O760        C770   1.269       .  A
O760       Co763   1.976       .  S
O761        C768   1.295       .  A
O761       Co766   2.044       .  S
O762        C769   1.289       .  A
O762       Co765   2.032       .  S
Co763       O767   2.086       .  S
Co764       O767   2.094       .  S
Co765       O767   2.092       .  S
Co766       O767   2.090       .  S
C768        C782   1.486       .  S
C769        C838   1.475       .  S
C770        C804   1.482       .  S
C771        C832   1.484       .  S
C772        C780   1.498       .  S
C772        C773   1.423       .  A
C773        C806   1.503       .  S
C773        C774   1.428       .  A
C774        C812   1.498       .  S
C774       C1117   1.433   1_554  A
C775        C794   1.497   1_565  S
C775       C1116   1.429       .  A
C776        C798   1.501       .  S
C776       C1119   1.425       .  A
C777       C1130   1.489       .  S
C777       C1118   1.427       .  A
C778        C996   1.477       .  S
C778        N779   1.352       .  A
C780        N781   1.374       .  A
N781        C782   1.361       .  A
C782        N783   1.358       .  A
C784        C995   1.467       .  S
C784       N1127   1.352   1_554  A
C784        N789   1.355       .  A
N785       C1126   1.352       .  A
N785        C786   1.352       .  A
C786        N787   1.354       .  A
N787        C788   1.368       .  A
C788       C1119   1.489       .  S
C788       N1131   1.370       .  A
N789       C1130   1.369   1_554  A
C790        C967   1.470       .  S
C790        N795   1.361       .  A
N791        C792   1.348   1_545  A
C792        N793   1.353       .  A
N793        C794   1.368   1_565  A
C796        C965   1.480       .  S
C796        N797   1.359       .  A
C796        N801   1.354       .  A
N797        C798   1.373       .  A
C798        N799   1.370       .  A
N799        C800   1.354       .  A
C800        N801   1.353       .  A
C802       C1025   1.474       .  S
C802        N803   1.355       .  A
C802        N807   1.353       .  A
N803        C804   1.355       .  A
C804        N805   1.362       .  A
N805        C806   1.374       .  A
C806        N807   1.367       .  A
C808       C1023   1.472       .  S
C808       N1151   1.352       .  A
C808        N813   1.360       .  A
N809       C1150   1.352       .  A
N809        C810   1.352       .  A
C810        N811   1.353       .  A
N811       C1154   1.366       .  A
C812       N1153   1.367   1_554  A
C812        N813   1.372       .  A
C814        C828   1.515       .  S
C814       C2183   1.434   1_455  A
C814        C819   1.429       .  A
C815       C2214   1.496       .  S
C815       C2182   1.433       .  A
C815        C816   1.432       .  A
C816        C852   1.503       .  S
C816       C1159   1.427       .  A
C817        C840   1.506       .  S
C817       C1158   1.426   1_554  A
C817        C818   1.429       .  A
C818        C836   1.498       .  S
C818       C2529   1.429   1_554  A
C819        C822   1.494       .  S
C819       C2528   1.429       .  A
C820        N821   1.355       .  A
C820       N1167   1.354       .  A
N821        C822   1.368       .  A
C822       N1165   1.372       .  A
N823       C1164   1.371   1_554  A
N823        C824   1.355       .  A
C824       C1009   1.480       .  S
C824        N825   1.356   1_554  A
N825       C1162   1.355       .  A
C826        N827   1.364       .  A
C826        N831   1.356       .  A
N827        C828   1.373       .  A
C828        N829   1.367       .  A
N829        C830   1.357       .  A
C830        C968   1.476       .  S
C830        N831   1.353       .  A
C832        N833   1.360       .  A
C832        N837   1.354       .  A
N833       C2202   1.360       .  A
C834       C1007   1.487       .  S
C834       N2201   1.360       .  A
C834        N835   1.360       .  A
N835       C2204   1.373       .  A
C836       N2203   1.373       .  A
C836        N837   1.368       .  A
C838        N839   1.357       .  A
C838        N843   1.352       .  A
N839        C840   1.371       .  A
C840        N841   1.375       .  A
N841        C842   1.362       .  A
C842        C978   1.480       .  S
C842        N843   1.351       .  A
C844        C966   1.475       .  S
C844        N845   1.354       .  A
C844        N849   1.358       .  A
N845        C846   1.366       .  A
C846       C2183   1.496   1_455  S
C846       N2215   1.369   1_455  A
N847       C2214   1.369       .  A
N847        C848   1.358       .  A
C848       N2217   1.359       .  A
N849       C2216   1.359   1_455  A
C850        N851   1.357       .  A
C850        N855   1.355       .  A
N851        C852   1.371       .  A
C852       N1195   1.373       .  A
N853       C1194   1.373   1_554  A
N853        C854   1.359       .  A
C854        C979   1.485       .  S
C854       N1197   1.355   1_554  A
N855       C1196   1.355       .  A
C856        C896   1.515       .  S
C856        C857   1.437       .  A
C856        C861   1.434       .  A
C857        C866   1.509       .  S
C857        C858   1.441       .  A
C858        C888   1.514       .  S
C858        C859   1.435       .  A
C859        C872   1.507       .  S
C859        C860   1.435       .  A
C860        C884   1.511       .  S
C860        C861   1.435       .  A
C861        C878   1.508       .  S
C862        N863   1.358       .  A
C862        N867   1.359       .  A
N863        C864   1.357       .  A
C864        C951   1.482       .  S
C864        N865   1.360       .  A
N865        C866   1.371       .  A
C866        N867   1.371       .  A
C868       C1008   1.484       .  S
C868        N869   1.354       .  A
C868        N873   1.358       .  A
N869        C870   1.354       .  A
C870        N871   1.361       .  A
N871        C872   1.373       .  A
C872        N873   1.373       .  A
C874        N875   1.352       .  A
C874        N879   1.359       .  A
N875        C876   1.351       .  A
C876        C997   1.479       .  S
C876        N877   1.360       .  A
N877        C878   1.373       .  A
C878        N879   1.373       .  A
C880       C1006   1.488       .  S
C880        N881   1.357       .  A
C880        N885   1.363       .  A
N881        C882   1.357       .  A
C882        N883   1.359       .  A
N883        C884   1.372       .  A
C884        N885   1.376       .  A
C886        N887   1.364       .  A
C886        N891   1.356       .  A
N887        C888   1.372       .  A
C888        N889   1.364       .  A
N889        C890   1.355       .  A
C890        C949   1.472       .  S
C890        N891   1.352       .  A
C892        N893   1.352       .  A
C892        N897   1.359       .  A
N893        C894   1.352       .  A
C894        C994   1.487       .  S
C894        N895   1.364       .  A
N895        C896   1.377       .  A
C896        N897   1.373       .  A
C898        C912   1.490       .  S
C898        C899   1.428       .  A
C899        C918   1.512       .  S
C899        C900   1.426       .  A
C900        C938   1.491       .  S
C900       C2269   1.429   1_455  A
C901        C932   1.499       .  S
C901       C2268   1.429       .  A
C902        C924   1.500       .  S
C902       C2271   1.425       .  A
C903        C908   1.501       .  S
C903       C2270   1.425       .  A
C904        C950   1.477       .  S
C904        N905   1.354   1_455  A
C904        N909   1.359       .  A
N905       C2274   1.355       .  A
C906       N2273   1.354       .  A
C906        N907   1.356       .  A
N907       C2276   1.370       .  A
C908       N2275   1.370       .  A
C908        N909   1.371   1_655  A
C910        C948   1.463       .  S
C910        N911   1.355       .  A
C912        N913   1.370       .  A
N913        C914   1.355       .  A
C914        N915   1.346       .  A
C916        N917   1.357       .  A
C916        N921   1.351       .  A
N917        C918   1.371       .  A
C918        N919   1.376       .  A
N919        C920   1.364       .  A
C920       C1024   1.478       .  S
C920        N921   1.352       .  A
C922        C980   1.471       .  S
C922        N923   1.357       .  A
C922        N927   1.349       .  A
N923        C924   1.372       .  A
C924        N925   1.372       .  A
N925        C926   1.358       .  A
C926        N927   1.349       .  A
C928        C977   1.483       .  S
C928        N933   1.356       .  A
N929        C930   1.358       .  A
C930        N931   1.357       .  A
N931        C932   1.370       .  A
C934       N2303   1.357       .  A
C934        N939   1.356       .  A
N935       C2302   1.357   1_455  A
N935        C936   1.356       .  A
C936       C1026   1.473       .  S
C936        N937   1.353       .  A
N937        C938   1.366       .  A
C938       N2307   1.369   1_455  A
N939       C2306   1.368       .  A
O940        C948   1.288       .  A
O940       Co960   2.032       .  S
O941        C949   1.297       .  A
O941       Co961   2.046       .  S
O942        C950   1.272       .  A
O942       Co962   1.990       .  S
O943        C951   1.281       .  A
O943       Co963   2.004       .  S
O944        C950   1.290       .  A
O944       Co961   2.025       .  S
O945        C951   1.294       .  A
O945       Co960   2.029       .  S
O946        C949   1.281       .  A
O946       Co963   1.999       .  S
O947        C948   1.268       .  A
O947       Co962   1.955       .  S
O952        C965   1.269       .  A
O952       Co960   1.985       .  S
O953        C966   1.278       .  A
O953       Co961   1.997       .  S
O954        C967   1.291       .  A
O954       Co962   2.032       .  S
O955        C968   1.296       .  A
O955       Co963   2.050       .  S
O956        C968   1.279       .  A
O956       Co961   1.995       .  S
O957        C967   1.274       .  A
O957       Co960   1.965       .  S
O958        C965   1.290       .  A
O958       Co963   2.030       .  S
O959        C966   1.294       .  A
O959       Co962   2.026       .  S
Co960       O964   2.015       .  S
Co961       O964   1.932       .  S
Co962       O964   2.021       .  S
Co963       O964   1.928       .  S
O969        C977   1.269       .  A
O969       Co989   1.979       .  S
O970        C978   1.271       .  A
O970       Co990   1.982       .  S
O971        C979   1.293       .  A
O971       Co991   2.044       .  S
O972        C980   1.286       .  A
O972       Co992   2.029       .  S
O973        C979   1.267       .  A
O973       Co990   1.978       .  S
O974        C980   1.267       .  A
O974       Co989   1.966       .  S
O975        C978   1.289       .  A
O975       Co992   2.033       .  S
O976        C977   1.295       .  A
O976       Co991   2.039       .  S
O981        C994   1.293       .  A
O981       Co989   2.042       .  S
O982        C995   1.288       .  A
O982       Co990   2.020       .  S
O983        C996   1.264       .  A
O983       Co991   1.971       .  S
O984        C997   1.268       .  A
O984       Co992   1.981       .  S
O985        C997   1.287       .  A
O985       Co990   2.032       .  S
O986        C996   1.293       .  A
O986       Co989   2.037       .  S
O987        C994   1.273       .  A
O987       Co992   1.986       .  S
O988        C995   1.270       .  A
O988       Co991   1.971       .  S
Co989       O993   2.088       .  S
Co990       O993   2.087       .  S
Co991       O993   2.090       .  S
Co992       O993   2.086       .  S
O998       C1006   1.297       .  A
O998      Co1018   2.042       .  S
O999       C1007   1.297       .  A
O999      Co1019   2.041       .  S
O1000      C1008   1.263       .  A
O1000     Co1020   1.969       .  S
O1001      C1009   1.261       .  A
O1001     Co1021   1.963       .  S
O1002      C1008   1.292       .  A
O1002     Co1019   2.050       .  S
O1003      C1009   1.291       .  A
O1003     Co1018   2.046       .  S
O1004      C1007   1.272       .  A
O1004     Co1021   1.986       .  S
O1005      C1006   1.274       .  A
O1005     Co1020   1.989       .  S
O1010      C1023   1.277       .  A
O1010     Co1018   1.990       .  S
O1011      C1024   1.275       .  A
O1011     Co1019   1.983       .  S
O1012      C1025   1.288       .  A
O1012     Co1020   2.036       .  S
O1013      C1026   1.286       .  A
O1013     Co1021   2.027       .  S
O1014      C1026   1.263       .  A
O1014     Co1019   1.974       .  S
O1015      C1025   1.262       .  A
O1015     Co1018   1.969       .  S
O1016      C1023   1.290       .  A
O1016     Co1021   2.019       .  S
O1017      C1024   1.292       .  A
O1017     Co1020   2.029       .  S
Co1018     O1022   2.088       .  S
Co1019     O1022   2.086       .  S
Co1020     O1022   2.089       .  S
Co1021     O1022   2.088       .  S
O1027      C1035   1.282       .  A
O1027     Co1047   2.011       .  S
O1028      C1036   1.283       .  A
O1028     Co1048   2.014       .  S
O1029      C1037   1.268       .  A
O1029     Co1049   1.970       .  S
O1030      C1038   1.269       .  A
O1030     Co1050   1.981       .  S
O1031      C1037   1.287       .  A
O1031     Co1048   2.027       .  S
O1032      C1038   1.286       .  A
O1032     Co1047   2.021       .  S
O1033      C1036   1.269       .  A
O1033     Co1050   1.976       .  S
O1034      C1035   1.272       .  A
O1034     Co1049   1.991       .  S
C1035      C1228   1.471       .  S
C1036      C1134   1.462       .  S
C1037      C1212   1.474       .  S
C1038      C1152   1.467       .  S
O1039      C1052   1.264       .  A
O1039     Co1047   1.962       .  S
O1040      C1053   1.267       .  A
O1040     Co1048   1.976       .  S
O1041      C1054   1.285       .  A
O1041     Co1049   2.018       .  S
O1042      C1055   1.286       .  A
O1042     Co1050   2.021       .  S
O1043      C1055   1.272       .  A
O1043     Co1048   1.980       .  S
O1044      C1054   1.272       .  A
O1044     Co1047   1.991       .  S
O1045      C1052   1.288       .  A
O1045     Co1050   2.032       .  S
O1046      C1053   1.288       .  A
O1046     Co1049   2.034       .  S
Co1047     O1051   2.081       .  S
Co1048     O1051   2.089       .  S
Co1049     O1051   2.081       .  S
Co1050     O1051   2.092       .  S
C1052      C1162   1.475       .  S
C1053      C1258   1.475       .  S
C1054      C1168   1.476       .  S
C1055      C1256   1.469       .  S
O1056      C1064   1.291       .  A
O1056     Co1076   2.033       .  S
O1057      C1065   1.291       .  A
O1057     Co1077   2.030       .  S
O1058      C1066   1.269       .  A
O1058     Co1078   1.994       .  S
O1059      C1067   1.267       .  A
O1059     Co1079   1.988       .  S
O1060      C1066   1.290       .  A
O1060     Co1077   2.036       .  S
O1061      C1067   1.290       .  A
O1061     Co1076   2.032       .  S
O1062      C1065   1.269       .  A
O1062     Co1079   1.972       .  S
O1063      C1064   1.271       .  A
O1063     Co1078   1.980       .  S
C1064      C1234   1.478       .  S
C1065      C1192   1.475       .  S
C1066      C1204   1.485       .  S
C1067      C1190   1.481       .  S
O1068      C1081   1.270       .  A
O1068     Co1076   1.978       .  S
O1069      C1082   1.270       .  A
O1069     Co1077   1.974       .  S
O1070      C1083   1.285       .  A
O1070     Co1078   2.031       .  S
O1071      C1084   1.286       .  A
O1071     Co1079   2.028       .  S
O1072      C1084   1.265       .  A
O1072     Co1077   1.970       .  S
O1073      C1083   1.265       .  A
O1073     Co1076   1.964       .  S
O1074      C1081   1.286       .  A
O1074     Co1079   2.014       .  S
O1075      C1082   1.285       .  A
O1075     Co1078   2.016       .  S
Co1076     O1080   2.081       .  S
Co1077     O1080   2.082       .  S
Co1078     O1080   2.095       .  S
Co1079     O1080   2.094       .  S
C1081      C1248   1.468       .  S
C1082      C1142   1.468       .  S
C1083      C1268   1.471       .  S
C1084      C1128   1.470       .  S
O1085      C1093   1.293       .  A
O1085     Co1105   2.040       .  S
O1086      C1094   1.289       .  A
O1086     Co1106   2.026       .  S
O1087      C1095   1.270       .  A
O1087     Co1107   1.979       .  S
O1088      C1096   1.267       .  A
O1088     Co1108   1.972       .  S
O1089      C1095   1.289       .  A
O1089     Co1106   2.030       .  S
O1090      C1096   1.293       .  A
O1090     Co1105   2.037       .  S
O1091      C1094   1.267       .  A
O1091     Co1108   1.972       .  S
O1092      C1093   1.268       .  A
O1092     Co1107   1.981       .  S
C1093      C1224   1.483       .  S
C1094      C1276   1.472       .  S
C1095      C1216   1.476       .  S
C1096      C1272   1.478       .  S
O1097      C1110   1.268       .  A
O1097     Co1105   1.975       .  S
O1098      C1111   1.268       .  A
O1098     Co1106   1.975       .  S
O1099      C1112   1.292       .  A
O1099     Co1107   2.039       .  S
O1100      C1113   1.294       .  A
O1100     Co1108   2.041       .  S
O1101      C1113   1.267       .  A
O1101     Co1106   1.982       .  S
O1102      C1112   1.268       .  A
O1102     Co1105   1.974       .  S
O1103      C1110   1.293       .  A
O1103     Co1108   2.038       .  S
O1104      C1111   1.290       .  A
O1104     Co1107   2.035       .  S
Co1105     O1109   2.088       .  S
Co1106     O1109   2.094       .  S
Co1107     O1109   2.089       .  S
Co1108     O1109   2.090       .  S
C1110      C1124   1.482       .  S
C1111      C1180   1.478       .  S
C1112      C1146   1.483       .  S
C1113      C1174   1.484       .  S
C1114      C1122   1.496       .  S
C1114      C1115   1.422       .  A
C1115      C1148   1.499       .  S
C1115      C1116   1.427       .  A
C1116      C1154   1.495       .  S
C1117      C1136   1.494   1_565  S
C1118      C1140   1.512       .  S
C1120      C1338   1.476       .  S
C1120      N1121   1.352       .  A
C1122      N1123   1.371       .  A
N1123      C1124   1.358       .  A
C1124      N1125   1.358       .  A
C1126      C1337   1.469       .  S
C1126      N1131   1.356       .  A
N1127      C1128   1.352       .  A
C1128      N1129   1.355       .  A
N1129      C1130   1.368       .  A
C1132      C1309   1.468       .  S
C1132      N1137   1.359       .  A
N1133      C1134   1.347   1_545  A
C1134      N1135   1.352       .  A
N1135      C1136   1.367   1_565  A
C1138      C1307   1.485       .  S
C1138      N1139   1.363       .  A
C1138      N1143   1.352       .  A
N1139      C1140   1.377       .  A
C1140      N1141   1.371       .  A
N1141      C1142   1.356       .  A
C1142      N1143   1.351       .  A
C1144      C1367   1.472       .  S
C1144      N1145   1.355       .  A
C1144      N1149   1.351       .  A
N1145      C1146   1.356       .  A
C1146      N1147   1.361       .  A
N1147      C1148   1.375       .  A
C1148      N1149   1.366       .  A
C1150      C1365   1.470       .  S
C1150      N1155   1.359       .  A
N1151      C1152   1.351   1_554  A
C1152      N1153   1.354       .  A
C1154      N1155   1.371       .  A
C1156      C1170   1.515       .  S
C1156      C2525   1.432       .  A
C1156      C1161   1.427       .  A
C1157      C2556   1.493       .  S
C1157      C2524   1.433       .  A
C1157      C1158   1.432       .  A
C1158      C1194   1.503       .  S
C1159      C1182   1.506       .  S
C1159      C1160   1.428       .  A
C1160      C1178   1.501       .  S
C1160      C2187   1.430       .  A
C1161      C1164   1.493       .  S
C1161      C2186   1.430   1_556  A
C1162      N1163   1.356       .  A
N1163      C1164   1.370       .  A
N1165      C1166   1.357       .  A
C1166      C1351   1.479       .  S
C1166      N1167   1.354       .  A
C1168      N1169   1.365       .  A
C1168      N1173   1.356       .  A
N1169      C1170   1.374       .  A
C1170      N1171   1.365       .  A
N1171      C1172   1.355       .  A
C1172      C1310   1.473       .  S
C1172      N1173   1.353       .  A
C1174      N1175   1.360       .  A
C1174      N1179   1.355       .  A
N1175      C2544   1.359       .  A
C1176      C1349   1.485       .  S
C1176      N2543   1.358       .  A
C1176      N1177   1.360       .  A
N1177      C2546   1.374       .  A
C1178      N2545   1.373       .  A
C1178      N1179   1.369       .  A
C1180      N1181   1.357       .  A
C1180      N1185   1.353       .  A
N1181      C1182   1.372       .  A
C1182      N1183   1.374       .  A
N1183      C1184   1.360       .  A
C1184      C1320   1.480       .  S
C1184      N1185   1.352       .  A
C1186      C1308   1.477       .  S
C1186      N1187   1.355       .  A
C1186      N1191   1.359       .  A
N1187      C1188   1.367       .  A
C1188      C2525   1.493       .  S
C1188      N2557   1.367   1_455  A
N1189      C2556   1.368       .  A
N1189      C1190   1.357       .  A
C1190      N2559   1.361       .  A
N1191      C2558   1.360   1_455  A
C1192      N1193   1.357       .  A
C1192      N1197   1.355       .  A
N1193      C1194   1.370       .  A
N1195      C1196   1.359       .  A
C1196      C1321   1.483       .  S
C1198      C1238   1.515       .  S
C1198      C1199   1.436       .  A
C1198      C1203   1.433       .  A
C1199      C1208   1.508       .  S
C1199      C1200   1.440       .  A
C1200      C1230   1.514       .  S
C1200      C1201   1.435       .  A
C1201      C1214   1.507       .  S
C1201      C1202   1.434       .  A
C1202      C1226   1.510       .  S
C1202      C1203   1.435       .  A
C1203      C1220   1.507       .  S
C1204      N1205   1.356       .  A
C1204      N1209   1.361       .  A
N1205      C1206   1.355       .  A
C1206      C1293   1.475       .  S
C1206      N1207   1.358       .  A
N1207      C1208   1.369       .  A
C1208      N1209   1.372       .  A
C1210      C1350   1.482       .  S
C1210      N1211   1.352       .  A
C1210      N1215   1.359       .  A
N1211      C1212   1.352       .  A
C1212      N1213   1.359       .  A
N1213      C1214   1.372       .  A
C1214      N1215   1.374       .  A
C1216      N1217   1.352       .  A
C1216      N1221   1.359       .  A
N1217      C1218   1.352       .  A
C1218      C1339   1.480       .  S
C1218      N1219   1.360       .  A
N1219      C1220   1.373       .  A
C1220      N1221   1.372       .  A
C1222      C1348   1.489       .  S
C1222      N1223   1.357       .  A
C1222      N1227   1.363       .  A
N1223      C1224   1.357       .  A
C1224      N1225   1.357       .  A
N1225      C1226   1.371       .  A
C1226      N1227   1.376       .  A
C1228      N1229   1.363       .  A
C1228      N1233   1.354       .  A
N1229      C1230   1.371       .  A
C1230      N1231   1.366       .  A
N1231      C1232   1.357       .  A
C1232      C1291   1.472       .  S
C1232      N1233   1.351       .  A
C1234      N1235   1.352       .  A
C1234      N1239   1.359       .  A
N1235      C1236   1.352       .  A
C1236      C1336   1.485       .  S
C1236      N1237   1.363       .  A
N1237      C1238   1.376       .  A
C1238      N1239   1.373       .  A
C1240      C1254   1.494       .  S
C1240      C1241   1.424       .  A
C1241      C1260   1.508       .  S
C1241      C1242   1.425   1_455  A
C1242      C1280   1.485       .  S
C1242      C2611   1.426       .  A
C1243      C1274   1.495       .  S
C1243      C2610   1.427       .  A
C1244      C1266   1.501       .  S
C1244      C2613   1.423       .  A
C1245      C1250   1.491       .  S
C1245      C2612   1.423       .  A
C1246      C1292   1.471       .  S
C1246      N1247   1.355   1_455  A
C1246      N1251   1.354       .  A
N1247      C2616   1.356       .  A
C1248      N2615   1.356       .  A
C1248      N1249   1.354       .  A
N1249      C2618   1.368       .  A
C1250      N2617   1.369       .  A
C1250      N1251   1.367   1_655  A
C1252      C1290   1.461       .  S
C1252      N1253   1.355       .  A
C1254      N1255   1.371       .  A
N1255      C1256   1.356       .  A
C1256      N1257   1.347       .  A
C1258      N1259   1.357       .  A
C1258      N1263   1.351       .  A
N1259      C1260   1.371       .  A
C1260      N1261   1.374       .  A
N1261      C1262   1.362       .  A
C1262      C1366   1.475       .  S
C1262      N1263   1.351       .  A
C1264      C1322   1.472       .  S
C1264      N1265   1.357       .  A
C1264      N1269   1.349       .  A
N1265      C1266   1.372       .  A
C1266      N1267   1.372       .  A
N1267      C1268   1.357       .  A
C1268      N1269   1.350       .  A
C1270      C1319   1.482       .  S
C1270      N1275   1.356       .  A
N1271      C1272   1.358       .  A
C1272      N1273   1.356       .  A
N1273      C1274   1.369       .  A
C1276      N2645   1.357       .  A
C1276      N1281   1.354       .  A
N1277      C2644   1.356       .  A
N1277      C1278   1.356   1_655  A
C1278      C1368   1.469       .  S
C1278      N1279   1.351       .  A
N1279      C1280   1.364   1_455  A
C1280      N2649   1.368       .  A
N1281      C2648   1.367       .  A
O1282      C1290   1.287       .  A
O1282     Co1302   2.028       .  S
O1283      C1291   1.295       .  A
O1283     Co1303   2.043       .  S
O1284      C1292   1.270       .  A
O1284     Co1304   1.988       .  S
O1285      C1293   1.281       .  A
O1285     Co1305   2.001       .  S
O1286      C1292   1.289       .  A
O1286     Co1303   2.019       .  S
O1287      C1293   1.292       .  A
O1287     Co1302   2.024       .  S
O1288      C1291   1.282       .  A
O1288     Co1305   2.001       .  S
O1289      C1290   1.270       .  A
O1289     Co1304   1.954       .  S
O1294      C1307   1.270       .  A
O1294     Co1302   1.989       .  S
O1295      C1308   1.279       .  A
O1295     Co1303   1.997       .  S
O1296      C1309   1.290       .  A
O1296     Co1304   2.032       .  S
O1297      C1310   1.297       .  A
O1297     Co1305   2.048       .  S
O1298      C1310   1.279       .  A
O1298     Co1303   1.994       .  S
O1299      C1309   1.272       .  A
O1299     Co1302   1.962       .  S
O1300      C1307   1.291       .  A
O1300     Co1305   2.035       .  S
O1301      C1308   1.294       .  A
O1301     Co1304   2.027       .  S
Co1302     O1306   2.017       .  S
Co1303     O1306   1.930       .  S
Co1304     O1306   2.018       .  S
Co1305     O1306   1.927       .  S
O1311      C1319   1.269       .  A
O1311     Co1331   1.978       .  S
O1312      C1320   1.270       .  A
O1312     Co1332   1.981       .  S
O1313      C1321   1.293       .  A
O1313     Co1333   2.042       .  S
O1314      C1322   1.287       .  A
O1314     Co1334   2.031       .  S
O1315      C1321   1.267       .  A
O1315     Co1332   1.977       .  S
O1316      C1322   1.267       .  A
O1316     Co1331   1.966       .  S
O1317      C1320   1.290       .  A
O1317     Co1334   2.033       .  S
O1318      C1319   1.294       .  A
O1318     Co1333   2.038       .  S
O1323      C1336   1.293       .  A
O1323     Co1331   2.039       .  S
O1324      C1337   1.288       .  A
O1324     Co1332   2.023       .  S
O1325      C1338   1.265       .  A
O1325     Co1333   1.972       .  S
O1326      C1339   1.268       .  A
O1326     Co1334   1.980       .  S
O1327      C1339   1.288       .  A
O1327     Co1332   2.034       .  S
O1328      C1338   1.292       .  A
O1328     Co1331   2.034       .  S
O1329      C1336   1.272       .  A
O1329     Co1334   1.986       .  S
O1330      C1337   1.269       .  A
O1330     Co1333   1.970       .  S
Co1331     O1335   2.088       .  S
Co1332     O1335   2.086       .  S
Co1333     O1335   2.090       .  S
Co1334     O1335   2.087       .  S
O1340      C1348   1.297       .  A
O1340     Co1360   2.043       .  S
O1341      C1349   1.295       .  A
O1341     Co1361   2.039       .  S
O1342      C1350   1.265       .  A
O1342     Co1362   1.971       .  S
O1343      C1351   1.263       .  A
O1343     Co1363   1.966       .  S
O1344      C1350   1.290       .  A
O1344     Co1361   2.044       .  S
O1345      C1351   1.290       .  A
O1345     Co1360   2.043       .  S
O1346      C1349   1.272       .  A
O1346     Co1363   1.986       .  S
O1347      C1348   1.273       .  A
O1347     Co1362   1.989       .  S
O1352      C1365   1.276       .  A
O1352     Co1360   1.989       .  S
O1353      C1366   1.275       .  A
O1353     Co1361   1.983       .  S
O1354      C1367   1.287       .  A
O1354     Co1362   2.032       .  S
O1355      C1368   1.286       .  A
O1355     Co1363   2.024       .  S
O1356      C1368   1.263       .  A
O1356     Co1361   1.972       .  S
O1357      C1367   1.262       .  A
O1357     Co1360   1.965       .  S
O1358      C1365   1.288       .  A
O1358     Co1363   2.017       .  S
O1359      C1366   1.290       .  A
O1359     Co1362   2.025       .  S
Co1360     O1364   2.085       .  S
Co1361     O1364   2.084       .  S
Co1362     O1364   2.090       .  S
Co1363     O1364   2.089       .  S
O1369      C1377   1.282       .  A
O1369     Co1389   2.010       .  S
O1370      C1378   1.284       .  A
O1370     Co1390   2.020       .  S
O1371      C1379   1.268       .  A
O1371     Co1391   1.969       .  S
O1372      C1380   1.269       .  A
O1372     Co1392   1.984       .  S
O1373      C1379   1.289       .  A
O1373     Co1390   2.032       .  S
O1374      C1380   1.286       .  A
O1374     Co1389   2.021       .  S
O1375      C1378   1.268       .  A
O1375     Co1392   1.975       .  S
O1376      C1377   1.272       .  A
O1376     Co1391   1.993       .  S
C1377      C1570   1.472       .  S
C1378      C1476   1.465       .  S
C1379      C1554   1.477       .  S
C1380      C1494   1.468       .  S
O1381      C1394   1.264       .  A
O1381     Co1389   1.962       .  S
O1382      C1395   1.266       .  A
O1382     Co1390   1.976       .  S
O1383      C1396   1.286       .  A
O1383     Co1391   2.019       .  S
O1384      C1397   1.284       .  A
O1384     Co1392   2.012       .  S
O1385      C1397   1.273       .  A
O1385     Co1390   1.983       .  S
O1386      C1396   1.272       .  A
O1386     Co1389   1.991       .  S
O1387      C1394   1.286       .  A
O1387     Co1392   2.027       .  S
O1388      C1395   1.289       .  A
O1388     Co1391   2.038       .  S
Co1389     O1393   2.081       .  S
Co1390     O1393   2.088       .  S
Co1391     O1393   2.081       .  S
Co1392     O1393   2.093       .  S
C1394      C1504   1.471       .  S
C1395      C1600   1.477       .  S
C1396      C1510   1.476       .  S
C1397      C1598   1.465       .  S
O1398      C1406   1.290       .  A
O1398     Co1418   2.032       .  S
O1399      C1407   1.291       .  A
O1399     Co1419   2.032       .  S
O1400      C1408   1.270       .  A
O1400     Co1420   1.996       .  S
O1401      C1409   1.268       .  A
O1401     Co1421   1.989       .  S
O1402      C1408   1.291       .  A
O1402     Co1419   2.036       .  S
O1403      C1409   1.289       .  A
O1403     Co1418   2.032       .  S
O1404      C1407   1.269       .  A
O1404     Co1421   1.973       .  S
O1405      C1406   1.270       .  A
O1405     Co1420   1.977       .  S
C1406      C1576   1.477       .  S
C1407      C1534   1.476       .  S
C1408      C1546   1.486       .  S
C1409      C1532   1.481       .  S
O1410      C1423   1.270       .  A
O1410     Co1418   1.979       .  S
O1411      C1424   1.269       .  A
O1411     Co1419   1.971       .  S
O1412      C1425   1.285       .  A
O1412     Co1420   2.030       .  S
O1413      C1426   1.286       .  A
O1413     Co1421   2.027       .  S
O1414      C1426   1.266       .  A
O1414     Co1419   1.969       .  S
O1415      C1425   1.267       .  A
O1415     Co1418   1.967       .  S
O1416      C1423   1.286       .  A
O1416     Co1421   2.017       .  S
O1417      C1424   1.285       .  A
O1417     Co1420   2.016       .  S
Co1418     O1422   2.081       .  S
Co1419     O1422   2.082       .  S
Co1420     O1422   2.095       .  S
Co1421     O1422   2.093       .  S
C1423      C1590   1.470       .  S
C1424      C1484   1.468       .  S
C1425      C1610   1.471       .  S
C1426      C1470   1.469       .  S
O1427      C1435   1.293       .  A
O1427     Co1447   2.042       .  S
O1428      C1436   1.289       .  A
O1428     Co1448   2.025       .  S
O1429      C1437   1.271       .  A
O1429     Co1449   1.981       .  S
O1430      C1438   1.267       .  A
O1430     Co1450   1.973       .  S
O1431      C1437   1.288       .  A
O1431     Co1448   2.027       .  S
O1432      C1438   1.293       .  A
O1432     Co1447   2.038       .  S
O1433      C1436   1.268       .  A
O1433     Co1450   1.975       .  S
O1434      C1435   1.268       .  A
O1434     Co1449   1.984       .  S
C1435      C1566   1.486       .  S
C1436      C1618   1.473       .  S
C1437      C1558   1.475       .  S
C1438      C1614   1.480       .  S
O1439      C1452   1.268       .  A
O1439     Co1447   1.974       .  S
O1440      C1453   1.268       .  A
O1440     Co1448   1.976       .  S
O1441      C1454   1.291       .  A
O1441     Co1449   2.038       .  S
O1442      C1455   1.295       .  A
O1442     Co1450   2.043       .  S
O1443      C1455   1.267       .  A
O1443     Co1448   1.982       .  S
O1444      C1454   1.269       .  A
O1444     Co1447   1.976       .  S
O1445      C1452   1.295       .  A
O1445     Co1450   2.045       .  S
O1446      C1453   1.289       .  A
O1446     Co1449   2.034       .  S
Co1447     O1451   2.086       .  S
Co1448     O1451   2.095       .  S
Co1449     O1451   2.091       .  S
Co1450     O1451   2.090       .  S
C1452      C1466   1.486       .  S
C1453      C1522   1.476       .  S
C1454      C1488   1.483       .  S
C1455      C1516   1.485       .  S
C1456      C1464   1.497       .  S
C1456      C1457   1.423       .  A
C1456      C2145   1.430   1_554  A
C1457      C1490   1.504       .  S
C1457      C1458   1.428       .  A
C1458      C1496   1.498       .  S
C1458      C1801   1.433   1_554  A
C1459      C1478   1.498       .  S
C1459      C1800   1.430       .  A
C1459      C2144   1.422       .  A
C1460      C1482   1.502       .  S
C1460      C2143   1.422   1_545  A
C1460      C1803   1.425       .  A
C1461      C1814   1.488   1_556  S
C1461      C2140   1.430   1_546  A
C1461      C1802   1.427       .  A
C1462      C1680   1.477       .  S
C1462      N1463   1.352       .  A
C1462      N2151   1.359   1_545  A
N1463      C2148   1.366   1_545  A
C1464      N2147   1.366       .  A
C1464      N1465   1.374       .  A
N1465      C1466   1.361       .  A
C1466      N1467   1.359       .  A
N1467      C2146   1.358       .  A
C1468      C1679   1.467       .  S
C1468      N1811   1.352       .  A
C1468      N1473   1.355       .  A
N1469      C1810   1.352       .  A
N1469      C1470   1.352       .  A
C1470      N1471   1.355       .  A
N1471      C1472   1.368       .  A
C1472      C1803   1.491       .  S
C1472      N1815   1.370       .  A
N1473      C1814   1.369       .  A
C1474      C1651   1.470       .  S
C1474      N2159   1.349       .  A
C1474      N1479   1.360       .  A
N1475      C2158   1.348       .  A
N1475      C1476   1.347       .  A
C1476      N1477   1.353       .  A
N1477      C1478   1.369       .  A
C1478      N2163   1.374       .  A
N1479      C2162   1.373       .  A
C1480      C1649   1.480       .  S
C1480      N1481   1.359       .  A
C1480      N1485   1.354       .  A
N1481      C1482   1.373       .  A
C1482      N1483   1.370       .  A
N1483      C1484   1.355       .  A
C1484      N1485   1.353       .  A
C1486      C1709   1.475       .  S
C1486      N1487   1.355       .  A
C1486      N1491   1.353       .  A
N1487      C1488   1.355       .  A
C1488      N1489   1.362       .  A
N1489      C1490   1.375       .  A
C1490      N1491   1.367       .  A
C1492      C1707   1.473       .  S
C1492      N1835   1.352       .  A
C1492      N1497   1.361       .  A
N1493      C1834   1.352       .  A
N1493      C1494   1.352       .  A
C1494      N1495   1.353       .  A
N1495      C1838   1.366       .  A
C1496      N1837   1.367   1_554  A
C1496      N1497   1.373       .  A
C1498      C1512   1.515       .  S
C1498      C1503   1.429       .  A
C1499      C1500   1.432       .  A
C1500      C1536   1.503       .  S
C1500      C1843   1.427       .  A
C1501      C1524   1.507       .  S
C1501      C1842   1.426   1_554  A
C1501      C1502   1.429   1_655  A
C1502      C1520   1.498       .  S
C1503      C1506   1.494       .  S
C1504      N1505   1.355       .  A
C1504      N1851   1.355       .  A
N1505      C1506   1.369       .  A
C1506      N1849   1.372       .  A
N1507      C1848   1.371   1_554  A
N1507      C1508   1.355       .  A
C1508      C1693   1.480       .  S
C1508      N1509   1.355   1_554  A
N1509      C1846   1.355       .  A
C1510      N1511   1.365       .  A
C1510      N1515   1.356       .  A
N1511      C1512   1.373       .  A
C1512      N1513   1.367       .  A
N1513      C1514   1.357       .  A
C1514      C1652   1.476       .  S
C1514      N1515   1.353       .  A
C1516      N1517   1.360   1_655  A
C1516      N1521   1.354       .  A
C1518      C1691   1.486       .  S
C1518      N1519   1.360       .  A
C1520      N1521   1.368   1_455  A
C1522      N1523   1.357       .  A
C1522      N1527   1.352       .  A
N1523      C1524   1.372       .  A
C1524      N1525   1.375       .  A
N1525      C1526   1.361       .  A
C1526      C1662   1.480       .  S
C1526      N1527   1.351       .  A
C1528      C1650   1.476       .  S
C1528      N1529   1.354       .  A
C1528      N1533   1.358       .  A
N1529      C1530   1.366       .  A
N1531      C1532   1.358       .  A
C1534      N1535   1.357       .  A
C1534      N1539   1.355       .  A
N1535      C1536   1.371       .  A
C1536      N1879   1.373       .  A
N1537      C1878   1.373   1_554  A
N1537      C1538   1.359       .  A
C1538      C1663   1.485       .  S
C1538      N1881   1.356   1_554  A
N1539      C1880   1.355       .  A
C1540      C1580   1.516       .  S
C1540      C1541   1.437       .  A
C1540      C1545   1.434       .  A
C1541      C1550   1.509       .  S
C1541      C1542   1.441       .  A
C1542      C1572   1.514       .  S
C1542      C1543   1.436       .  A
C1543      C1556   1.508       .  S
C1543      C1544   1.435       .  A
C1544      C1568   1.512       .  S
C1544      C1545   1.435       .  A
C1545      C1562   1.507       .  S
C1546      N1547   1.358       .  A
C1546      N1551   1.360       .  A
N1547      C1548   1.357       .  A
C1548      C1635   1.481       .  S
C1548      N1549   1.360       .  A
N1549      C1550   1.371       .  A
C1550      N1551   1.371       .  A
C1552      C1692   1.484       .  S
C1552      N1553   1.354       .  A
C1552      N1557   1.358       .  A
N1553      C1554   1.354       .  A
C1554      N1555   1.361       .  A
N1555      C1556   1.373       .  A
C1556      N1557   1.373       .  A
C1558      N1559   1.351       .  A
C1558      N1563   1.359       .  A
N1559      C1560   1.351       .  A
C1560      C1681   1.479       .  S
C1560      N1561   1.360       .  A
N1561      C1562   1.373       .  A
C1562      N1563   1.372       .  A
C1564      C1690   1.489       .  S
C1564      N1565   1.357       .  A
C1564      N1569   1.363       .  A
N1565      C1566   1.357       .  A
C1566      N1567   1.358       .  A
N1567      C1568   1.372       .  A
C1568      N1569   1.376       .  A
C1570      N1571   1.364       .  A
C1570      N1575   1.355       .  A
N1571      C1572   1.372       .  A
C1572      N1573   1.365       .  A
N1573      C1574   1.355       .  A
C1574      C1633   1.471       .  S
C1574      N1575   1.352       .  A
C1576      N1577   1.352       .  A
C1576      N1581   1.359       .  A
N1577      C1578   1.351       .  A
C1578      C1678   1.487       .  S
C1578      N1579   1.364       .  A
N1579      C1580   1.378       .  A
C1580      N1581   1.373       .  A
C1582      C1596   1.491       .  S
C1582      C1583   1.428       .  A
C1582      C2271   1.428       .  A
C1583      C1602   1.511       .  S
C1583      C1584   1.426       .  A
C1584      C1622   1.490       .  S
C1585      C1616   1.500       .  S
C1585      C2270   1.427       .  A
C1586      C1608   1.501       .  S
C1586      C2269   1.427   1_545  A
C1587      C1592   1.500       .  S
C1587      C2266   1.428   1_545  A
C1588      C1634   1.476       .  S
C1588      N1589   1.354       .  A
C1588      N1593   1.358       .  A
C1590      N1591   1.356       .  A
C1592      N1593   1.371       .  A
C1594      C1632   1.463       .  S
C1594      N1595   1.355       .  A
C1594      N2283   1.348   1_545  A
N1595      C2280   1.369   1_545  A
C1596      N2279   1.369       .  A
C1596      N1597   1.370       .  A
N1597      C1598   1.355       .  A
C1598      N1599   1.346       .  A
N1599      C2278   1.348       .  A
C1600      N1601   1.357       .  A
C1600      N1605   1.351       .  A
N1601      C1602   1.371       .  A
C1602      N1603   1.376       .  A
N1603      C1604   1.364       .  A
C1604      C1708   1.478       .  S
C1604      N1605   1.352       .  A
C1606      C1664   1.469       .  S
C1606      N1607   1.357       .  A
C1606      N1611   1.349       .  A
N1607      C1608   1.371       .  A
C1608      N1609   1.372       .  A
N1609      C1610   1.358       .  A
C1610      N1611   1.348       .  A
C1612      C1661   1.482       .  S
C1612      N2297   1.359   1_545  A
C1612      N1617   1.356       .  A
N1613      C2296   1.358       .  A
N1613      C1614   1.358       .  A
C1614      N1615   1.357       .  A
N1615      C1616   1.370       .  A
C1616      N2301   1.371       .  A
N1617      C2300   1.370   1_545  A
C1618      N1623   1.355       .  A
N1619      C1620   1.356       .  A
C1620      C1710   1.472       .  S
C1620      N1621   1.352       .  A
N1621      C1622   1.365       .  A
O1624      C1632   1.287       .  A
O1624     Co1644   2.030       .  S
O1625      C1633   1.296       .  A
O1625     Co1645   2.043       .  S
O1626      C1634   1.272       .  A
O1626     Co1646   1.990       .  S
O1627      C1635   1.281       .  A
O1627     Co1647   2.004       .  S
O1628      C1634   1.290       .  A
O1628     Co1645   2.023       .  S
O1629      C1635   1.294       .  A
O1629     Co1644   2.028       .  S
O1630      C1633   1.282       .  A
O1630     Co1647   2.000       .  S
O1631      C1632   1.268       .  A
O1631     Co1646   1.956       .  S
O1636      C1649   1.269       .  A
O1636     Co1644   1.984       .  S
O1637      C1650   1.278       .  A
O1637     Co1645   1.997       .  S
O1638      C1651   1.291       .  A
O1638     Co1646   2.032       .  S
O1639      C1652   1.297       .  A
O1639     Co1647   2.050       .  S
O1640      C1652   1.279       .  A
O1640     Co1645   1.995       .  S
O1641      C1651   1.274       .  A
O1641     Co1644   1.964       .  S
O1642      C1649   1.291       .  A
O1642     Co1647   2.032       .  S
O1643      C1650   1.294       .  A
O1643     Co1646   2.028       .  S
Co1644     O1648   2.015       .  S
Co1645     O1648   1.931       .  S
Co1646     O1648   2.021       .  S
Co1647     O1648   1.929       .  S
O1653      C1661   1.269       .  A
O1653     Co1673   1.980       .  S
O1654      C1662   1.271       .  A
O1654     Co1674   1.982       .  S
O1655      C1663   1.293       .  A
O1655     Co1675   2.043       .  S
O1656      C1664   1.286       .  A
O1656     Co1676   2.028       .  S
O1657      C1663   1.267       .  A
O1657     Co1674   1.978       .  S
O1658      C1664   1.267       .  A
O1658     Co1673   1.966       .  S
O1659      C1662   1.289       .  A
O1659     Co1676   2.032       .  S
O1660      C1661   1.295       .  A
O1660     Co1675   2.038       .  S
O1665      C1678   1.293       .  A
O1665     Co1673   2.041       .  S
O1666      C1679   1.288       .  A
O1666     Co1674   2.020       .  S
O1667      C1680   1.264       .  A
O1667     Co1675   1.970       .  S
O1668      C1681   1.268       .  A
O1668     Co1676   1.981       .  S
O1669      C1681   1.287       .  A
O1669     Co1674   2.033       .  S
O1670      C1680   1.292       .  A
O1670     Co1673   2.037       .  S
O1671      C1678   1.273       .  A
O1671     Co1676   1.987       .  S
O1672      C1679   1.270       .  A
O1672     Co1675   1.971       .  S
Co1673     O1677   2.088       .  S
Co1674     O1677   2.086       .  S
Co1675     O1677   2.089       .  S
Co1676     O1677   2.086       .  S
O1682      C1690   1.297       .  A
O1682     Co1702   2.042       .  S
O1683      C1691   1.297       .  A
O1683     Co1703   2.039       .  S
O1684      C1692   1.263       .  A
O1684     Co1704   1.969       .  S
O1685      C1693   1.261       .  A
O1685     Co1705   1.963       .  S
O1686      C1692   1.291       .  A
O1686     Co1703   2.049       .  S
O1687      C1693   1.290       .  A
O1687     Co1702   2.046       .  S
O1688      C1691   1.273       .  A
O1688     Co1705   1.987       .  S
O1689      C1690   1.274       .  A
O1689     Co1704   1.989       .  S
O1694      C1707   1.277       .  A
O1694     Co1702   1.992       .  S
O1695      C1708   1.276       .  A
O1695     Co1703   1.984       .  S
O1696      C1709   1.288       .  A
O1696     Co1704   2.037       .  S
O1697      C1710   1.286       .  A
O1697     Co1705   2.028       .  S
O1698      C1710   1.263       .  A
O1698     Co1703   1.973       .  S
O1699      C1709   1.261       .  A
O1699     Co1702   1.967       .  S
O1700      C1707   1.290       .  A
O1700     Co1705   2.019       .  S
O1701      C1708   1.292       .  A
O1701     Co1704   2.028       .  S
Co1702     O1706   2.087       .  S
Co1703     O1706   2.086       .  S
Co1704     O1706   2.089       .  S
Co1705     O1706   2.089       .  S
O1711      C1719   1.282       .  A
O1711     Co1731   2.011       .  S
O1712      C1720   1.284       .  A
O1712     Co1732   2.015       .  S
O1713      C1721   1.268       .  A
O1713     Co1733   1.971       .  S
O1714      C1722   1.269       .  A
O1714     Co1734   1.982       .  S
O1715      C1721   1.288       .  A
O1715     Co1732   2.030       .  S
O1716      C1722   1.286       .  A
O1716     Co1731   2.021       .  S
O1717      C1720   1.268       .  A
O1717     Co1734   1.976       .  S
O1718      C1719   1.272       .  A
O1718     Co1733   1.992       .  S
C1719      C1912   1.472       .  S
C1720      C1818   1.462       .  S
C1721      C1896   1.476       .  S
C1722      C1836   1.468       .  S
O1723      C1736   1.264       .  A
O1723     Co1731   1.961       .  S
O1724      C1737   1.266       .  A
O1724     Co1732   1.976       .  S
O1725      C1738   1.286       .  A
O1725     Co1733   2.020       .  S
O1726      C1739   1.285       .  A
O1726     Co1734   2.018       .  S
O1727      C1739   1.272       .  A
O1727     Co1732   1.980       .  S
O1728      C1738   1.272       .  A
O1728     Co1731   1.991       .  S
O1729      C1736   1.287       .  A
O1729     Co1734   2.029       .  S
O1730      C1737   1.288       .  A
O1730     Co1733   2.035       .  S
Co1731     O1735   2.080       .  S
Co1732     O1735   2.088       .  S
Co1733     O1735   2.081       .  S
Co1734     O1735   2.093       .  S
C1736      C1846   1.473       .  S
C1737      C1942   1.475       .  S
C1738      C1852   1.477       .  S
C1739      C1940   1.467       .  S
O1740      C1748   1.292       .  A
O1740     Co1760   2.034       .  S
O1741      C1749   1.291       .  A
O1741     Co1761   2.031       .  S
O1742      C1750   1.269       .  A
O1742     Co1762   1.994       .  S
O1743      C1751   1.267       .  A
O1743     Co1763   1.987       .  S
O1744      C1750   1.290       .  A
O1744     Co1761   2.037       .  S
O1745      C1751   1.290       .  A
O1745     Co1760   2.033       .  S
O1746      C1749   1.269       .  A
O1746     Co1763   1.972       .  S
O1747      C1748   1.271       .  A
O1747     Co1762   1.980       .  S
C1748      C1918   1.479       .  S
C1749      C1876   1.475       .  S
C1750      C1888   1.486       .  S
C1751      C1874   1.481       .  S
O1752      C1765   1.270       .  A
O1752     Co1760   1.978       .  S
O1753      C1766   1.270       .  A
O1753     Co1761   1.974       .  S
O1754      C1767   1.286       .  A
O1754     Co1762   2.032       .  S
O1755      C1768   1.286       .  A
O1755     Co1763   2.028       .  S
O1756      C1768   1.265       .  A
O1756     Co1761   1.969       .  S
O1757      C1767   1.264       .  A
O1757     Co1760   1.963       .  S
O1758      C1765   1.286       .  A
O1758     Co1763   2.014       .  S
O1759      C1766   1.285       .  A
O1759     Co1762   2.016       .  S
Co1760     O1764   2.081       .  S
Co1761     O1764   2.082       .  S
Co1762     O1764   2.095       .  S
Co1763     O1764   2.095       .  S
C1765      C1932   1.468       .  S
C1766      C1826   1.468       .  S
C1767      C1952   1.470       .  S
C1768      C1812   1.469       .  S
O1769      C1777   1.293       .  A
O1769     Co1789   2.040       .  S
O1770      C1778   1.290       .  A
O1770     Co1790   2.027       .  S
O1771      C1779   1.270       .  A
O1771     Co1791   1.980       .  S
O1772      C1780   1.266       .  A
O1772     Co1792   1.971       .  S
O1773      C1779   1.290       .  A
O1773     Co1790   2.032       .  S
O1774      C1780   1.293       .  A
O1774     Co1789   2.037       .  S
O1775      C1778   1.267       .  A
O1775     Co1792   1.973       .  S
O1776      C1777   1.268       .  A
O1776     Co1791   1.982       .  S
C1777      C1908   1.484       .  S
C1778      C1960   1.473       .  S
C1779      C1900   1.478       .  S
C1780      C1956   1.479       .  S
O1781      C1794   1.268       .  A
O1781     Co1789   1.975       .  S
O1782      C1795   1.268       .  A
O1782     Co1790   1.975       .  S
O1783      C1796   1.292       .  A
O1783     Co1791   2.039       .  S
O1784      C1797   1.294       .  A
O1784     Co1792   2.041       .  S
O1785      C1797   1.267       .  A
O1785     Co1790   1.982       .  S
O1786      C1796   1.268       .  A
O1786     Co1789   1.975       .  S
O1787      C1794   1.294       .  A
O1787     Co1792   2.040       .  S
O1788      C1795   1.290       .  A
O1788     Co1791   2.035       .  S
Co1789     O1793   2.088       .  S
Co1790     O1793   2.094       .  S
Co1791     O1793   2.090       .  S
Co1792     O1793   2.090       .  S
C1794      C1808   1.483       .  S
C1795      C1864   1.477       .  S
C1796      C1830   1.483       .  S
C1797      C1858   1.484       .  S
C1798      C1806   1.497       .  S
C1798      C1799   1.423       .  A
C1798      C2487   1.428       .  A
C1799      C1832   1.501       .  S
C1799      C1800   1.428       .  A
C1800      C1838   1.496       .  S
C1801      C1820   1.494       .  S
C1801      C2486   1.423       .  A
C1802      C1824   1.510       .  S
C1802      C2485   1.422   1_545  A
C1803      C2482   1.428   1_545  A
C1804      C2022   1.477       .  S
C1804      N1805   1.352       .  A
C1804      N2493   1.358   1_545  A
N1805      C2490   1.367   1_545  A
C1806      N2489   1.368       .  A
C1806      N1807   1.372       .  A
N1807      C1808   1.359       .  A
C1808      N1809   1.359       .  A
N1809      C2488   1.358       .  A
C1810      C2021   1.469       .  S
C1810      N1815   1.355       .  A
N1811      C1812   1.353   1_554  A
C1812      N1813   1.354       .  A
N1813      C1814   1.368   1_556  A
C1816      C1993   1.469       .  S
C1816      N2501   1.348   1_545  A
C1816      N1821   1.359       .  A
N1817      C2500   1.349       .  A
N1817      C1818   1.348       .  A
C1818      N1819   1.352       .  A
N1819      C1820   1.367       .  A
C1820      N2505   1.373       .  A
N1821      C2504   1.373   1_545  A
C1822      C1991   1.485       .  S
C1822      N1823   1.363       .  A
C1822      N1827   1.352       .  A
N1823      C1824   1.377       .  A
C1824      N1825   1.371       .  A
N1825      C1826   1.356       .  A
C1826      N1827   1.352       .  A
C1828      C2051   1.472       .  S
C1828      N1829   1.355       .  A
C1828      N1833   1.352       .  A
N1829      C1830   1.355       .  A
C1830      N1831   1.361       .  A
N1831      C1832   1.375       .  A
C1832      N1833   1.367       .  A
C1834      C2049   1.471       .  S
C1834      N1839   1.360       .  A
N1835      C1836   1.352   1_554  A
C1836      N1837   1.354       .  A
C1838      N1839   1.371       .  A
C1840      C1854   1.515       .  S
C1840      C1845   1.427       .  A
C1841      C1842   1.432       .  A
C1842      C1878   1.503       .  S
C1843      C1866   1.507       .  S
C1843      C1844   1.428   1_655  A
C1844      C1862   1.500       .  S
C1845      C1848   1.492       .  S
C1846      N1847   1.355       .  A
N1847      C1848   1.370       .  A
N1849      C1850   1.356       .  A
C1850      C2035   1.480       .  S
C1850      N1851   1.354       .  A
C1852      N1853   1.365       .  A
C1852      N1857   1.357       .  A
N1853      C1854   1.374       .  A
C1854      N1855   1.366       .  A
N1855      C1856   1.356       .  A
C1856      C1994   1.474       .  S
C1856      N1857   1.353       .  A
C1858      N1859   1.360   1_655  A
C1858      N1863   1.355       .  A
C1860      C2033   1.486       .  S
C1860      N1861   1.361       .  A
C1862      N1863   1.369   1_455  A
C1864      N1865   1.357       .  A
C1864      N1869   1.353       .  A
N1865      C1866   1.372       .  A
C1866      N1867   1.375       .  A
N1867      C1868   1.361       .  A
C1868      C2004   1.481       .  S
C1868      N1869   1.352       .  A
C1870      C1992   1.476       .  S
C1870      N1871   1.355       .  A
C1870      N1875   1.359       .  A
N1871      C1872   1.367       .  A
N1873      C1874   1.356       .  A
C1876      N1877   1.357       .  A
C1876      N1881   1.355       .  A
N1877      C1878   1.370       .  A
N1879      C1880   1.359       .  A
C1880      C2005   1.484       .  S
C1882      C1922   1.517       .  S
C1882      C1883   1.437       .  A
C1882      C1887   1.434       .  A
C1883      C1892   1.509       .  S
C1883      C1884   1.441       .  A
C1884      C1914   1.514       .  S
C1884      C1885   1.436       .  A
C1885      C1898   1.510       .  S
C1885      C1886   1.435       .  A
C1886      C1910   1.510       .  S
C1886      C1887   1.436       .  A
C1887      C1904   1.508       .  S
C1888      N1889   1.357       .  A
C1888      N1893   1.361       .  A
N1889      C1890   1.356       .  A
C1890      C1977   1.477       .  S
C1890      N1891   1.358       .  A
N1891      C1892   1.370       .  A
C1892      N1893   1.372       .  A
C1894      C2034   1.484       .  S
C1894      N1895   1.353       .  A
C1894      N1899   1.359       .  A
N1895      C1896   1.352       .  A
C1896      N1897   1.360       .  A
N1897      C1898   1.373       .  A
C1898      N1899   1.374       .  A
C1900      N1901   1.352       .  A
C1900      N1905   1.359       .  A
N1901      C1902   1.352       .  A
C1902      C2023   1.481       .  S
C1902      N1903   1.360       .  A
N1903      C1904   1.374       .  A
C1904      N1905   1.373       .  A
C1906      C2032   1.490       .  S
C1906      N1907   1.357       .  A
C1906      N1911   1.363       .  A
N1907      C1908   1.357       .  A
C1908      N1909   1.358       .  A
N1909      C1910   1.371       .  A
C1910      N1911   1.376       .  A
C1912      N1913   1.363       .  A
C1912      N1917   1.355       .  A
N1913      C1914   1.372       .  A
C1914      N1915   1.366       .  A
N1915      C1916   1.357       .  A
C1916      C1975   1.472       .  S
C1916      N1917   1.352       .  A
C1918      N1919   1.353       .  A
C1918      N1923   1.360       .  A
N1919      C1920   1.353       .  A
C1920      C2020   1.487       .  S
C1920      N1921   1.364       .  A
N1921      C1922   1.377       .  A
C1922      N1923   1.373       .  A
C1924      C1938   1.492       .  S
C1924      C1925   1.425       .  A
C1924      C2613   1.426       .  A
C1925      C1944   1.509       .  S
C1925      C1926   1.425       .  A
C1926      C1964   1.486       .  S
C1927      C1958   1.495       .  S
C1927      C2612   1.423       .  A
C1928      C1950   1.499       .  S
C1928      C2611   1.422   1_545  A
C1929      C1934   1.491       .  S
C1929      C2608   1.428   1_545  A
C1930      C1976   1.472       .  S
C1930      N1931   1.355       .  A
C1930      N1935   1.354       .  A
C1932      N1933   1.354       .  A
C1934      N1935   1.367       .  A
C1936      C1974   1.461       .  S
C1936      N1937   1.355       .  A
C1936      N2625   1.347   1_545  A
N1937      C2622   1.369   1_545  A
C1938      N2621   1.370       .  A
C1938      N1939   1.371       .  A
N1939      C1940   1.355       .  A
C1940      N1941   1.347       .  A
N1941      C2620   1.348       .  A
C1942      N1943   1.357       .  A
C1942      N1947   1.350       .  A
N1943      C1944   1.371       .  A
C1944      N1945   1.375       .  A
N1945      C1946   1.362       .  A
C1946      C2050   1.475       .  S
C1946      N1947   1.351       .  A
C1948      C2006   1.473       .  S
C1948      N1949   1.357       .  A
C1948      N1953   1.350       .  A
N1949      C1950   1.373       .  A
C1950      N1951   1.371       .  A
N1951      C1952   1.357       .  A
C1952      N1953   1.350       .  A
C1954      C2003   1.482       .  S
C1954      N2639   1.359   1_545  A
C1954      N1959   1.356       .  A
N1955      C2638   1.359       .  A
N1955      C1956   1.358       .  A
C1956      N1957   1.356       .  A
N1957      C1958   1.369       .  A
C1958      N2643   1.370       .  A
N1959      C2642   1.370   1_545  A
C1960      N1965   1.354       .  A
N1961      C1962   1.356       .  A
C1962      C2052   1.471       .  S
C1962      N1963   1.351       .  A
N1963      C1964   1.365       .  A
O1966      C1974   1.287       .  A
O1966     Co1986   2.029       .  S
O1967      C1975   1.296       .  A
O1967     Co1987   2.044       .  S
O1968      C1976   1.270       .  A
O1968     Co1988   1.989       .  S
O1969      C1977   1.281       .  A
O1969     Co1989   2.001       .  S
O1970      C1976   1.289       .  A
O1970     Co1987   2.019       .  S
O1971      C1977   1.293       .  A
O1971     Co1986   2.025       .  S
O1972      C1975   1.282       .  A
O1972     Co1989   2.001       .  S
O1973      C1974   1.269       .  A
O1973     Co1988   1.954       .  S
O1978      C1991   1.270       .  A
O1978     Co1986   1.988       .  S
O1979      C1992   1.278       .  A
O1979     Co1987   1.997       .  S
O1980      C1993   1.290       .  A
O1980     Co1988   2.032       .  S
O1981      C1994   1.297       .  A
O1981     Co1989   2.050       .  S
O1982      C1994   1.279       .  A
O1982     Co1987   1.994       .  S
O1983      C1993   1.273       .  A
O1983     Co1986   1.962       .  S
O1984      C1991   1.291       .  A
O1984     Co1989   2.035       .  S
O1985      C1992   1.294       .  A
O1985     Co1988   2.027       .  S
Co1986     O1990   2.017       .  S
Co1987     O1990   1.930       .  S
Co1988     O1990   2.019       .  S
Co1989     O1990   1.927       .  S
O1995      C2003   1.269       .  A
O1995     Co2015   1.978       .  S
O1996      C2004   1.270       .  A
O1996     Co2016   1.981       .  S
O1997      C2005   1.293       .  A
O1997     Co2017   2.043       .  S
O1998      C2006   1.287       .  A
O1998     Co2018   2.031       .  S
O1999      C2005   1.268       .  A
O1999     Co2016   1.977       .  S
O2000      C2006   1.267       .  A
O2000     Co2015   1.966       .  S
O2001      C2004   1.290       .  A
O2001     Co2018   2.034       .  S
O2002      C2003   1.295       .  A
O2002     Co2017   2.039       .  S
O2007      C2020   1.293       .  A
O2007     Co2015   2.041       .  S
O2008      C2021   1.288       .  A
O2008     Co2016   2.024       .  S
O2009      C2022   1.265       .  A
O2009     Co2017   1.972       .  S
O2010      C2023   1.269       .  A
O2010     Co2018   1.981       .  S
O2011      C2023   1.288       .  A
O2011     Co2016   2.034       .  S
O2012      C2022   1.292       .  A
O2012     Co2015   2.035       .  S
O2013      C2020   1.272       .  A
O2013     Co2018   1.987       .  S
O2014      C2021   1.269       .  A
O2014     Co2017   1.970       .  S
Co2015     O2019   2.087       .  S
Co2016     O2019   2.087       .  S
Co2017     O2019   2.090       .  S
Co2018     O2019   2.087       .  S
O2024      C2032   1.297       .  A
O2024     Co2044   2.044       .  S
O2025      C2033   1.296       .  A
O2025     Co2045   2.040       .  S
O2026      C2034   1.264       .  A
O2026     Co2046   1.971       .  S
O2027      C2035   1.263       .  A
O2027     Co2047   1.966       .  S
O2028      C2034   1.290       .  A
O2028     Co2045   2.047       .  S
O2029      C2035   1.290       .  A
O2029     Co2044   2.045       .  S
O2030      C2033   1.272       .  A
O2030     Co2047   1.985       .  S
O2031      C2032   1.273       .  A
O2031     Co2046   1.990       .  S
O2036      C2049   1.276       .  A
O2036     Co2044   1.989       .  S
O2037      C2050   1.275       .  A
O2037     Co2045   1.984       .  S
O2038      C2051   1.287       .  A
O2038     Co2046   2.032       .  S
O2039      C2052   1.286       .  A
O2039     Co2047   2.026       .  S
O2040      C2052   1.263       .  A
O2040     Co2045   1.972       .  S
O2041      C2051   1.262       .  A
O2041     Co2044   1.966       .  S
O2042      C2049   1.289       .  A
O2042     Co2047   2.018       .  S
O2043      C2050   1.290       .  A
O2043     Co2046   2.025       .  S
Co2044     O2048   2.085       .  S
Co2045     O2048   2.085       .  S
Co2046     O2048   2.090       .  S
Co2047     O2048   2.089       .  S
O2053      C2061   1.281       .  A
O2053     Co2073   2.010       .  S
O2054      C2062   1.285       .  A
O2054     Co2074   2.021       .  S
O2055      C2063   1.268       .  A
O2055     Co2075   1.969       .  S
O2056      C2064   1.269       .  A
O2056     Co2076   1.983       .  S
O2057      C2063   1.289       .  A
O2057     Co2074   2.032       .  S
O2058      C2064   1.286       .  A
O2058     Co2073   2.018       .  S
O2059      C2062   1.267       .  A
O2059     Co2076   1.975       .  S
O2060      C2061   1.272       .  A
O2060     Co2075   1.992       .  S
C2061      C2254   1.471       .  S
C2062      C2160   1.466       .  S
C2063      C2238   1.477       .  S
C2064      C2178   1.466       .  S
O2065      C2078   1.264       .  A
O2065     Co2073   1.962       .  S
O2066      C2079   1.266       .  A
O2066     Co2074   1.975       .  S
O2067      C2080   1.285       .  A
O2067     Co2075   2.018       .  S
O2068      C2081   1.284       .  A
O2068     Co2076   2.012       .  S
O2069      C2081   1.273       .  A
O2069     Co2074   1.982       .  S
O2070      C2080   1.272       .  A
O2070     Co2073   1.990       .  S
O2071      C2078   1.285       .  A
O2071     Co2076   2.027       .  S
O2072      C2079   1.288       .  A
O2072     Co2075   2.036       .  S
Co2073     O2077   2.081       .  S
Co2074     O2077   2.088       .  S
Co2075     O2077   2.081       .  S
Co2076     O2077   2.093       .  S
C2078      C2188   1.471       .  S
C2079      C2284   1.476       .  S
C2080      C2194   1.475       .  S
C2081      C2282   1.464       .  S
O2082      C2090   1.290       .  A
O2082     Co2102   2.032       .  S
O2083      C2091   1.292       .  A
O2083     Co2103   2.032       .  S
O2084      C2092   1.269       .  A
O2084     Co2104   1.995       .  S
O2085      C2093   1.268       .  A
O2085     Co2105   1.989       .  S
O2086      C2092   1.291       .  A
O2086     Co2103   2.035       .  S
O2087      C2093   1.289       .  A
O2087     Co2102   2.032       .  S
O2088      C2091   1.269       .  A
O2088     Co2105   1.972       .  S
O2089      C2090   1.270       .  A
O2089     Co2104   1.976       .  S
C2090      C2260   1.476       .  S
C2091      C2218   1.477       .  S
C2092      C2230   1.485       .  S
C2093      C2216   1.481       .  S
O2094      C2107   1.270       .  A
O2094     Co2102   1.978       .  S
O2095      C2108   1.269       .  A
O2095     Co2103   1.972       .  S
O2096      C2109   1.286       .  A
O2096     Co2104   2.031       .  S
O2097      C2110   1.287       .  A
O2097     Co2105   2.030       .  S
O2098      C2110   1.265       .  A
O2098     Co2103   1.969       .  S
O2099      C2109   1.267       .  A
O2099     Co2102   1.968       .  S
O2100      C2107   1.287       .  A
O2100     Co2105   2.020       .  S
O2101      C2108   1.285       .  A
O2101     Co2104   2.016       .  S
Co2102     O2106   2.081       .  S
Co2103     O2106   2.083       .  S
Co2104     O2106   2.096       .  S
Co2105     O2106   2.093       .  S
C2107      C2274   1.472       .  S
C2108      C2168   1.468       .  S
C2109      C2294   1.472       .  S
C2110      C2154   1.470       .  S
O2111      C2119   1.293       .  A
O2111     Co2131   2.043       .  S
O2112      C2120   1.289       .  A
O2112     Co2132   2.026       .  S
O2113      C2121   1.270       .  A
O2113     Co2133   1.981       .  S
O2114      C2122   1.267       .  A
O2114     Co2134   1.974       .  S
O2115      C2121   1.288       .  A
O2115     Co2132   2.030       .  S
O2116      C2122   1.294       .  A
O2116     Co2131   2.039       .  S
O2117      C2120   1.268       .  A
O2117     Co2134   1.975       .  S
O2118      C2119   1.269       .  A
O2118     Co2133   1.984       .  S
C2119      C2250   1.486       .  S
C2120      C2302   1.474       .  S
C2121      C2242   1.477       .  S
C2122      C2298   1.481       .  S
O2123      C2136   1.268       .  A
O2123     Co2131   1.975       .  S
O2124      C2137   1.268       .  A
O2124     Co2132   1.977       .  S
O2125      C2138   1.291       .  A
O2125     Co2133   2.037       .  S
O2126      C2139   1.295       .  A
O2126     Co2134   2.043       .  S
O2127      C2139   1.267       .  A
O2127     Co2132   1.982       .  S
O2128      C2138   1.269       .  A
O2128     Co2131   1.976       .  S
O2129      C2136   1.295       .  A
O2129     Co2134   2.045       .  S
O2130      C2137   1.290       .  A
O2130     Co2133   2.034       .  S
Co2131     O2135   2.087       .  S
Co2132     O2135   2.095       .  S
Co2133     O2135   2.092       .  S
Co2134     O2135   2.091       .  S
C2136      C2150   1.487       .  S
C2137      C2206   1.477       .  S
C2138      C2172   1.483       .  S
C2139      C2200   1.485       .  S
C2140      C2148   1.498       .  S
C2140      C2141   1.423       .  A
C2141      C2174   1.504       .  S
C2141      C2142   1.429       .  A
C2142      C2180   1.496       .  S
C2142      C2485   1.432   1_554  A
C2143      C2162   1.497   1_565  S
C2143      C2484   1.430       .  A
C2144      C2166   1.501       .  S
C2144      C2487   1.425       .  A
C2145      C2498   1.489       .  S
C2145      C2486   1.426       .  A
C2146      C2364   1.476       .  S
C2146      N2147   1.352       .  A
C2148      N2149   1.374       .  A
N2149      C2150   1.361       .  A
C2150      N2151   1.359       .  A
C2152      C2363   1.467       .  S
C2152      N2495   1.351       .  A
C2152      N2157   1.355       .  A
N2153      C2494   1.352       .  A
N2153      C2154   1.353       .  A
C2154      N2155   1.355       .  A
N2155      C2156   1.369       .  A
C2156      C2487   1.490       .  S
C2156      N2499   1.369       .  A
N2157      C2498   1.369   1_554  A
C2158      C2335   1.469       .  S
C2158      N2163   1.361       .  A
N2159      C2160   1.348   1_545  A
C2160      N2161   1.353       .  A
N2161      C2162   1.368   1_565  A
C2164      C2333   1.480       .  S
C2164      N2165   1.359       .  A
C2164      N2169   1.354       .  A
N2165      C2166   1.373       .  A
C2166      N2167   1.370       .  A
N2167      C2168   1.355       .  A
C2168      N2169   1.354       .  A
C2170      C2393   1.474       .  S
C2170      N2171   1.355       .  A
C2170      N2175   1.353       .  A
N2171      C2172   1.355       .  A
C2172      N2173   1.362       .  A
N2173      C2174   1.375       .  A
C2174      N2175   1.367       .  A
C2176      C2391   1.472       .  S
C2176      N2519   1.352       .  A
C2176      N2181   1.360       .  A
N2177      C2518   1.351       .  A
N2177      C2178   1.351       .  A
C2178      N2179   1.353       .  A
N2179      C2522   1.366       .  A
C2180      N2521   1.366   1_554  A
C2180      N2181   1.372       .  A
C2182      C2196   1.515       .  S
C2182      C2187   1.428       .  A
C2183      C2184   1.432       .  A
C2184      C2220   1.504       .  S
C2184      C2527   1.427       .  A
C2185      C2208   1.508       .  S
C2185      C2526   1.426   1_554  A
C2185      C2186   1.429   1_655  A
C2186      C2204   1.499       .  S
C2187      C2190   1.493       .  S
C2188      N2189   1.355       .  A
C2188      N2535   1.354       .  A
N2189      C2190   1.369       .  A
C2190      N2533   1.371       .  A
N2191      C2532   1.371   1_554  A
N2191      C2192   1.356       .  A
C2192      C2377   1.480       .  S
C2192      N2193   1.355   1_554  A
N2193      C2530   1.355       .  A
C2194      N2195   1.364       .  A
C2194      N2199   1.356       .  A
N2195      C2196   1.373       .  A
C2196      N2197   1.368       .  A
N2197      C2198   1.357       .  A
C2198      C2336   1.475       .  S
C2198      N2199   1.352       .  A
C2200      N2201   1.360   1_655  A
C2200      N2205   1.355       .  A
C2202      C2375   1.487       .  S
C2202      N2203   1.360       .  A
C2204      N2205   1.369   1_455  A
C2206      N2207   1.357       .  A
C2206      N2211   1.352       .  A
N2207      C2208   1.372       .  A
C2208      N2209   1.375       .  A
N2209      C2210   1.362       .  A
C2210      C2346   1.481       .  S
C2210      N2211   1.352       .  A
C2212      C2334   1.475       .  S
C2212      N2213   1.354       .  A
C2212      N2217   1.358       .  A
N2213      C2214   1.366       .  A
N2215      C2216   1.358       .  A
C2218      N2219   1.357       .  A
C2218      N2223   1.355       .  A
N2219      C2220   1.371       .  A
C2220      N2563   1.373       .  A
N2221      C2562   1.373   1_554  A
N2221      C2222   1.359       .  A
C2222      C2347   1.484       .  S
C2222      N2565   1.355   1_554  A
N2223      C2564   1.356       .  A
C2224      C2264   1.514       .  S
C2224      C2225   1.437       .  A
C2224      C2229   1.433       .  A
C2225      C2234   1.508       .  S
C2225      C2226   1.440       .  A
C2226      C2256   1.514       .  S
C2226      C2227   1.435       .  A
C2227      C2240   1.506       .  S
C2227      C2228   1.434       .  A
C2228      C2252   1.510       .  S
C2228      C2229   1.434       .  A
C2229      C2246   1.508       .  S
C2230      N2231   1.358       .  A
C2230      N2235   1.359       .  A
N2231      C2232   1.358       .  A
C2232      C2319   1.481       .  S
C2232      N2233   1.360       .  A
N2233      C2234   1.371       .  A
C2234      N2235   1.370       .  A
C2236      C2376   1.484       .  S
C2236      N2237   1.354       .  A
C2236      N2241   1.358       .  A
N2237      C2238   1.354       .  A
C2238      N2239   1.360       .  A
N2239      C2240   1.373       .  A
C2240      N2241   1.373       .  A
C2242      N2243   1.352       .  A
C2242      N2247   1.359       .  A
N2243      C2244   1.351       .  A
C2244      C2365   1.478       .  S
C2244      N2245   1.359       .  A
N2245      C2246   1.373       .  A
C2246      N2247   1.373       .  A
C2248      C2374   1.487       .  S
C2248      N2249   1.357       .  A
C2248      N2253   1.362       .  A
N2249      C2250   1.357       .  A
C2250      N2251   1.359       .  A
N2251      C2252   1.372       .  A
C2252      N2253   1.375       .  A
C2254      N2255   1.364       .  A
C2254      N2259   1.355       .  A
N2255      C2256   1.372       .  A
C2256      N2257   1.365       .  A
N2257      C2258   1.356       .  A
C2258      C2317   1.471       .  S
C2258      N2259   1.351       .  A
C2260      N2261   1.352       .  A
C2260      N2265   1.358       .  A
N2261      C2262   1.352       .  A
C2262      C2362   1.487       .  S
C2262      N2263   1.364       .  A
N2263      C2264   1.378       .  A
C2264      N2265   1.372       .  A
C2266      C2280   1.491       .  S
C2266      C2267   1.428       .  A
C2267      C2286   1.512       .  S
C2267      C2268   1.427       .  A
C2268      C2306   1.491       .  S
C2269      C2300   1.498       .  S
C2270      C2292   1.500       .  S
C2271      C2276   1.499       .  S
C2272      C2318   1.476       .  S
C2272      N2273   1.354       .  A
C2272      N2277   1.358       .  A
C2274      N2275   1.356       .  A
C2276      N2277   1.371       .  A
C2278      C2316   1.461       .  S
C2278      N2279   1.355       .  A
C2280      N2281   1.370       .  A
N2281      C2282   1.355       .  A
C2282      N2283   1.347       .  A
C2284      N2285   1.357       .  A
C2284      N2289   1.351       .  A
N2285      C2286   1.371       .  A
C2286      N2287   1.376       .  A
N2287      C2288   1.363       .  A
C2288      C2392   1.477       .  S
C2288      N2289   1.351       .  A
C2290      C2348   1.470       .  S
C2290      N2291   1.357       .  A
C2290      N2295   1.349       .  A
N2291      C2292   1.371       .  A
C2292      N2293   1.372       .  A
N2293      C2294   1.358       .  A
C2294      N2295   1.349       .  A
C2296      C2345   1.482       .  S
C2296      N2301   1.357       .  A
N2297      C2298   1.359       .  A
C2298      N2299   1.357       .  A
N2299      C2300   1.370       .  A
C2302      N2307   1.356       .  A
N2303      C2304   1.357       .  A
C2304      C2394   1.473       .  S
C2304      N2305   1.353       .  A
N2305      C2306   1.366       .  A
O2308      C2316   1.287       .  A
O2308     Co2328   2.029       .  S
O2309      C2317   1.296       .  A
O2309     Co2329   2.043       .  S
O2310      C2318   1.271       .  A
O2310     Co2330   1.991       .  S
O2311      C2319   1.281       .  A
O2311     Co2331   2.004       .  S
O2312      C2318   1.290       .  A
O2312     Co2329   2.024       .  S
O2313      C2319   1.294       .  A
O2313     Co2328   2.028       .  S
O2314      C2317   1.281       .  A
O2314     Co2331   2.000       .  S
O2315      C2316   1.269       .  A
O2315     Co2330   1.956       .  S
O2320      C2333   1.269       .  A
O2320     Co2328   1.985       .  S
O2321      C2334   1.279       .  A
O2321     Co2329   1.997       .  S
O2322      C2335   1.290       .  A
O2322     Co2330   2.031       .  S
O2323      C2336   1.296       .  A
O2323     Co2331   2.049       .  S
O2324      C2336   1.279       .  A
O2324     Co2329   1.995       .  S
O2325      C2335   1.274       .  A
O2325     Co2328   1.964       .  S
O2326      C2333   1.290       .  A
O2326     Co2331   2.031       .  S
O2327      C2334   1.293       .  A
O2327     Co2330   2.026       .  S
Co2328     O2332   2.015       .  S
Co2329     O2332   1.929       .  S
Co2330     O2332   2.022       .  S
Co2331     O2332   1.928       .  S
O2337      C2345   1.270       .  A
O2337     Co2357   1.980       .  S
O2338      C2346   1.271       .  A
O2338     Co2358   1.983       .  S
O2339      C2347   1.292       .  A
O2339     Co2359   2.042       .  S
O2340      C2348   1.286       .  A
O2340     Co2360   2.027       .  S
O2341      C2347   1.267       .  A
O2341     Co2358   1.978       .  S
O2342      C2348   1.267       .  A
O2342     Co2357   1.966       .  S
O2343      C2346   1.289       .  A
O2343     Co2360   2.032       .  S
O2344      C2345   1.295       .  A
O2344     Co2359   2.038       .  S
O2349      C2362   1.293       .  A
O2349     Co2357   2.041       .  S
O2350      C2363   1.287       .  A
O2350     Co2358   2.020       .  S
O2351      C2364   1.264       .  A
O2351     Co2359   1.969       .  S
O2352      C2365   1.268       .  A
O2352     Co2360   1.980       .  S
O2353      C2365   1.287       .  A
O2353     Co2358   2.032       .  S
O2354      C2364   1.292       .  A
O2354     Co2357   2.037       .  S
O2355      C2362   1.273       .  A
O2355     Co2360   1.987       .  S
O2356      C2363   1.271       .  A
O2356     Co2359   1.973       .  S
Co2357     O2361   2.088       .  S
Co2358     O2361   2.087       .  S
Co2359     O2361   2.088       .  S
Co2360     O2361   2.086       .  S
O2366      C2374   1.297       .  A
O2366     Co2386   2.041       .  S
O2367      C2375   1.297       .  A
O2367     Co2387   2.042       .  S
O2368      C2376   1.263       .  A
O2368     Co2388   1.969       .  S
O2369      C2377   1.262       .  A
O2369     Co2389   1.963       .  S
O2370      C2376   1.292       .  A
O2370     Co2387   2.050       .  S
O2371      C2377   1.290       .  A
O2371     Co2386   2.045       .  S
O2372      C2375   1.272       .  A
O2372     Co2389   1.985       .  S
O2373      C2374   1.273       .  A
O2373     Co2388   1.988       .  S
O2378      C2391   1.276       .  A
O2378     Co2386   1.989       .  S
O2379      C2392   1.275       .  A
O2379     Co2387   1.983       .  S
O2380      C2393   1.288       .  A
O2380     Co2388   2.035       .  S
O2381      C2394   1.287       .  A
O2381     Co2389   2.028       .  S
O2382      C2394   1.263       .  A
O2382     Co2387   1.974       .  S
O2383      C2393   1.262       .  A
O2383     Co2386   1.969       .  S
O2384      C2391   1.290       .  A
O2384     Co2389   2.019       .  S
O2385      C2392   1.291       .  A
O2385     Co2388   2.027       .  S
Co2386     O2390   2.088       .  S
Co2387     O2390   2.086       .  S
Co2388     O2390   2.089       .  S
Co2389     O2390   2.088       .  S
O2395      C2403   1.280       .  A
O2395     Co2415   2.007       .  S
O2396      C2404   1.283       .  A
O2396     Co2416   2.015       .  S
O2397      C2405   1.268       .  A
O2397     Co2417   1.970       .  S
O2398      C2406   1.269       .  A
O2398     Co2418   1.983       .  S
O2399      C2405   1.288       .  A
O2399     Co2416   2.029       .  S
O2400      C2406   1.286       .  A
O2400     Co2415   2.019       .  S
O2401      C2404   1.268       .  A
O2401     Co2418   1.975       .  S
O2402      C2403   1.272       .  A
O2402     Co2417   1.991       .  S
C2403      C2596   1.468       .  S
C2404      C2502   1.462       .  S
C2405      C2580   1.475       .  S
C2406      C2520   1.467       .  S
O2407      C2420   1.263       .  A
O2407     Co2415   1.961       .  S
O2408      C2421   1.266       .  A
O2408     Co2416   1.976       .  S
O2409      C2422   1.285       .  A
O2409     Co2417   2.018       .  S
O2410      C2423   1.285       .  A
O2410     Co2418   2.017       .  S
O2411      C2423   1.273       .  A
O2411     Co2416   1.981       .  S
O2412      C2422   1.273       .  A
O2412     Co2415   1.992       .  S
O2413      C2420   1.287       .  A
O2413     Co2418   2.032       .  S
O2414      C2421   1.288       .  A
O2414     Co2417   2.036       .  S
Co2415     O2419   2.080       .  S
Co2416     O2419   2.088       .  S
Co2417     O2419   2.081       .  S
Co2418     O2419   2.091       .  S
C2420      C2530   1.473       .  S
C2421      C2626   1.475       .  S
C2422      C2536   1.476       .  S
C2423      C2624   1.467       .  S
O2424      C2432   1.292       .  A
O2424     Co2444   2.033       .  S
O2425      C2433   1.291       .  A
O2425     Co2445   2.029       .  S
O2426      C2434   1.269       .  A
O2426     Co2446   1.992       .  S
O2427      C2435   1.267       .  A
O2427     Co2447   1.987       .  S
O2428      C2434   1.290       .  A
O2428     Co2445   2.036       .  S
O2429      C2435   1.289       .  A
O2429     Co2444   2.031       .  S
O2430      C2433   1.269       .  A
O2430     Co2447   1.972       .  S
O2431      C2432   1.271       .  A
O2431     Co2446   1.979       .  S
C2432      C2602   1.479       .  S
C2433      C2560   1.474       .  S
C2434      C2572   1.484       .  S
C2435      C2558   1.479       .  S
O2436      C2449   1.271       .  A
O2436     Co2444   1.980       .  S
O2437      C2450   1.270       .  A
O2437     Co2445   1.975       .  S
O2438      C2451   1.286       .  A
O2438     Co2446   2.033       .  S
O2439      C2452   1.286       .  A
O2439     Co2447   2.027       .  S
O2440      C2452   1.265       .  A
O2440     Co2445   1.969       .  S
O2441      C2451   1.264       .  A
O2441     Co2444   1.963       .  S
O2442      C2449   1.286       .  A
O2442     Co2447   2.014       .  S
O2443      C2450   1.286       .  A
O2443     Co2446   2.018       .  S
Co2444     O2448   2.081       .  S
Co2445     O2448   2.082       .  S
Co2446     O2448   2.093       .  S
Co2447     O2448   2.094       .  S
C2449      C2616   1.469       .  S
C2450      C2510   1.470       .  S
C2451      C2636   1.471       .  S
C2452      C2496   1.468       .  S
O2453      C2461   1.294       .  A
O2453     Co2473   2.042       .  S
O2454      C2462   1.288       .  A
O2454     Co2474   2.025       .  S
O2455      C2463   1.270       .  A
O2455     Co2475   1.981       .  S
O2456      C2464   1.267       .  A
O2456     Co2476   1.973       .  S
O2457      C2463   1.288       .  A
O2457     Co2474   2.029       .  S
O2458      C2464   1.293       .  A
O2458     Co2473   2.039       .  S
O2459      C2462   1.268       .  A
O2459     Co2476   1.973       .  S
O2460      C2461   1.268       .  A
O2460     Co2475   1.983       .  S
C2461      C2592   1.485       .  S
C2462      C2644   1.472       .  S
C2463      C2584   1.476       .  S
C2464      C2640   1.480       .  S
O2465      C2478   1.268       .  A
O2465     Co2473   1.975       .  S
O2466      C2479   1.268       .  A
O2466     Co2474   1.976       .  S
O2467      C2480   1.291       .  A
O2467     Co2475   2.036       .  S
O2468      C2481   1.293       .  A
O2468     Co2476   2.039       .  S
O2469      C2481   1.268       .  A
O2469     Co2474   1.981       .  S
O2470      C2480   1.268       .  A
O2470     Co2473   1.974       .  S
O2471      C2478   1.293       .  A
O2471     Co2476   2.039       .  S
O2472      C2479   1.290       .  A
O2472     Co2475   2.034       .  S
Co2473     O2477   2.087       .  S
Co2474     O2477   2.093       .  S
Co2475     O2477   2.091       .  S
Co2476     O2477   2.090       .  S
C2478      C2492   1.482       .  S
C2479      C2548   1.476       .  S
C2480      C2514   1.481       .  S
C2481      C2542   1.482       .  S
C2482      C2490   1.495       .  S
C2482      C2483   1.423       .  A
C2483      C2516   1.502       .  S
C2483      C2484   1.427       .  A
C2484      C2522   1.495       .  S
C2485      C2504   1.495       .  S
C2486      C2508   1.510       .  S
C2488      C2706   1.477       .  S
C2488      N2489   1.353       .  A
C2490      N2491   1.372       .  A
N2491      C2492   1.359       .  A
C2492      N2493   1.359       .  A
C2494      C2705   1.468       .  S
C2494      N2499   1.355       .  A
N2495      C2496   1.352   1_554  A
C2496      N2497   1.354       .  A
N2497      C2498   1.368       .  A
C2500      C2677   1.470       .  S
C2500      N2505   1.360       .  A
N2501      C2502   1.347       .  A
C2502      N2503   1.352       .  A
N2503      C2504   1.368       .  A
C2506      C2675   1.484       .  S
C2506      N2507   1.363       .  A
C2506      N2511   1.352       .  A
N2507      C2508   1.376       .  A
C2508      N2509   1.371       .  A
N2509      C2510   1.356       .  A
C2510      N2511   1.353       .  A
C2512      C2735   1.475       .  S
C2512      N2513   1.355       .  A
C2512      N2517   1.353       .  A
N2513      C2514   1.356       .  A
C2514      N2515   1.361       .  A
N2515      C2516   1.374       .  A
C2516      N2517   1.367       .  A
C2518      C2733   1.471       .  S
C2518      N2523   1.360       .  A
N2519      C2520   1.351   1_554  A
C2520      N2521   1.353       .  A
C2522      N2523   1.372       .  A
C2524      C2538   1.515       .  S
C2524      C2529   1.427       .  A
C2525      C2526   1.432   1_455  A
C2526      C2562   1.503       .  S
C2527      C2550   1.505       .  S
C2527      C2528   1.429   1_655  A
C2528      C2546   1.501       .  S
C2529      C2532   1.494       .  S
C2530      N2531   1.355       .  A
N2531      C2532   1.370       .  A
N2533      C2534   1.356       .  A
C2534      C2719   1.478       .  S
C2534      N2535   1.353       .  A
C2536      N2537   1.365       .  A
C2536      N2541   1.356       .  A
N2537      C2538   1.374       .  A
C2538      N2539   1.366       .  A
N2539      C2540   1.356       .  A
C2540      C2678   1.473       .  S
C2540      N2541   1.352       .  A
C2542      N2543   1.358   1_655  A
C2542      N2547   1.355       .  A
C2544      C2717   1.486       .  S
C2544      N2545   1.360       .  A
C2546      N2547   1.369   1_455  A
C2548      N2549   1.357       .  A
C2548      N2553   1.352       .  A
N2549      C2550   1.372       .  A
C2550      N2551   1.374       .  A
N2551      C2552   1.360       .  A
C2552      C2688   1.479       .  S
C2552      N2553   1.352       .  A
C2554      C2676   1.477       .  S
C2554      N2555   1.354       .  A
C2554      N2559   1.359       .  A
N2555      C2556   1.366       .  A
N2557      C2558   1.356       .  A
C2560      N2561   1.356       .  A
C2560      N2565   1.355       .  A
N2561      C2562   1.370       .  A
N2563      C2564   1.359       .  A
C2564      C2689   1.485       .  S
C2566      C2606   1.515       .  S
C2566      C2567   1.436       .  A
C2566      C2571   1.434       .  A
C2567      C2576   1.508       .  S
C2567      C2568   1.440       .  A
C2568      C2598   1.513       .  S
C2568      C2569   1.435       .  A
C2569      C2582   1.508       .  S
C2569      C2570   1.434       .  A
C2570      C2594   1.511       .  S
C2570      C2571   1.435       .  A
C2571      C2588   1.507       .  S
C2572      N2573   1.357       .  A
C2572      N2577   1.360       .  A
N2573      C2574   1.356       .  A
C2574      C2661   1.479       .  S
C2574      N2575   1.359       .  A
N2575      C2576   1.370       .  A
C2576      N2577   1.371       .  A
C2578      C2718   1.484       .  S
C2578      N2579   1.353       .  A
C2578      N2583   1.359       .  A
N2579      C2580   1.353       .  A
C2580      N2581   1.359       .  A
N2581      C2582   1.372       .  A
C2582      N2583   1.374       .  A
C2584      N2585   1.352       .  A
C2584      N2589   1.358       .  A
N2585      C2586   1.352       .  A
C2586      C2707   1.478       .  S
C2586      N2587   1.359       .  A
N2587      C2588   1.373       .  A
C2588      N2589   1.372       .  A
C2590      C2716   1.488       .  S
C2590      N2591   1.357       .  A
C2590      N2595   1.362       .  A
N2591      C2592   1.357       .  A
C2592      N2593   1.358       .  A
N2593      C2594   1.372       .  A
C2594      N2595   1.375       .  A
C2596      N2597   1.362       .  A
C2596      N2601   1.353       .  A
N2597      C2598   1.371       .  A
C2598      N2599   1.367       .  A
N2599      C2600   1.357       .  A
C2600      C2659   1.470       .  S
C2600      N2601   1.350       .  A
C2602      N2603   1.352       .  A
C2602      N2607   1.360       .  A
N2603      C2604   1.353       .  A
C2604      C2704   1.485       .  S
C2604      N2605   1.362       .  A
N2605      C2606   1.376       .  A
C2606      N2607   1.374       .  A
C2608      C2622   1.493       .  S
C2608      C2609   1.425       .  A
C2609      C2628   1.510       .  S
C2609      C2610   1.425       .  A
C2610      C2648   1.485       .  S
C2611      C2642   1.497       .  S
C2612      C2634   1.501       .  S
C2613      C2618   1.490       .  S
C2614      C2660   1.472       .  S
C2614      N2615   1.356       .  A
C2614      N2619   1.354       .  A
C2616      N2617   1.356       .  A
C2618      N2619   1.367       .  A
C2620      C2658   1.462       .  S
C2620      N2621   1.356       .  A
C2622      N2623   1.372       .  A
N2623      C2624   1.356       .  A
C2624      N2625   1.346       .  A
C2626      N2627   1.357       .  A
C2626      N2631   1.351       .  A
N2627      C2628   1.370       .  A
C2628      N2629   1.375       .  A
N2629      C2630   1.363       .  A
C2630      C2734   1.476       .  S
C2630      N2631   1.351       .  A
C2632      C2690   1.472       .  S
C2632      N2633   1.358       .  A
C2632      N2637   1.349       .  A
N2633      C2634   1.373       .  A
C2634      N2635   1.372       .  A
N2635      C2636   1.357       .  A
C2636      N2637   1.350       .  A
C2638      C2687   1.481       .  S
C2638      N2643   1.356       .  A
N2639      C2640   1.359       .  A
C2640      N2641   1.356       .  A
N2641      C2642   1.370       .  A
C2644      N2649   1.355       .  A
N2645      C2646   1.357       .  A
C2646      C2736   1.472       .  S
C2646      N2647   1.352       .  A
N2647      C2648   1.365       .  A
O2650      C2658   1.288       .  A
O2650     Co2670   2.030       .  S
O2651      C2659   1.294       .  A
O2651     Co2671   2.040       .  S
O2652      C2660   1.270       .  A
O2652     Co2672   1.988       .  S
O2653      C2661   1.281       .  A
O2653     Co2673   2.002       .  S
O2654      C2660   1.289       .  A
O2654     Co2671   2.019       .  S
O2655      C2661   1.294       .  A
O2655     Co2670   2.029       .  S
O2656      C2659   1.282       .  A
O2656     Co2673   2.002       .  S
O2657      C2658   1.269       .  A
O2657     Co2672   1.954       .  S
O2662      C2675   1.269       .  A
O2662     Co2670   1.986       .  S
O2663      C2676   1.278       .  A
O2663     Co2671   1.997       .  S
O2664      C2677   1.291       .  A
O2664     Co2672   2.032       .  S
O2665      C2678   1.296       .  A
O2665     Co2673   2.046       .  S
O2666      C2678   1.279       .  A
O2666     Co2671   1.995       .  S
O2667      C2677   1.273       .  A
O2667     Co2670   1.963       .  S
O2668      C2675   1.291       .  A
O2668     Co2673   2.035       .  S
O2669      C2676   1.295       .  A
O2669     Co2672   2.029       .  S
Co2670     O2674   2.017       .  S
Co2671     O2674   1.930       .  S
Co2672     O2674   2.020       .  S
Co2673     O2674   1.928       .  S
O2679      C2687   1.269       .  A
O2679     Co2699   1.977       .  S
O2680      C2688   1.270       .  A
O2680     Co2700   1.980       .  S
O2681      C2689   1.293       .  A
O2681     Co2701   2.045       .  S
O2682      C2690   1.287       .  A
O2682     Co2702   2.031       .  S
O2683      C2689   1.268       .  A
O2683     Co2700   1.978       .  S
O2684      C2690   1.267       .  A
O2684     Co2699   1.966       .  S
O2685      C2688   1.289       .  A
O2685     Co2702   2.031       .  S
O2686      C2687   1.294       .  A
O2686     Co2701   2.038       .  S
O2691      C2704   1.293       .  A
O2691     Co2699   2.041       .  S
O2692      C2705   1.288       .  A
O2692     Co2700   2.022       .  S
O2693      C2706   1.266       .  A
O2693     Co2701   1.973       .  S
O2694      C2707   1.269       .  A
O2694     Co2702   1.982       .  S
O2695      C2707   1.288       .  A
O2695     Co2700   2.031       .  S
O2696      C2706   1.292       .  A
O2696     Co2699   2.035       .  S
O2697      C2704   1.271       .  A
O2697     Co2702   1.984       .  S
O2698      C2705   1.269       .  A
O2698     Co2701   1.970       .  S
Co2699     O2703   2.087       .  S
Co2700     O2703   2.087       .  S
Co2701     O2703   2.089       .  S
Co2702     O2703   2.087       .  S
O2708      C2716   1.296       .  A
O2708     Co2728   2.041       .  S
O2709      C2717   1.296       .  A
O2709     Co2729   2.040       .  S
O2710      C2718   1.264       .  A
O2710     Co2730   1.970       .  S
O2711      C2719   1.263       .  A
O2711     Co2731   1.965       .  S
O2712      C2718   1.290       .  A
O2712     Co2729   2.047       .  S
O2713      C2719   1.289       .  A
O2713     Co2728   2.042       .  S
O2714      C2717   1.272       .  A
O2714     Co2731   1.986       .  S
O2715      C2716   1.273       .  A
O2715     Co2730   1.989       .  S
O2720      C2733   1.276       .  A
O2720     Co2728   1.990       .  S
O2721      C2734   1.275       .  A
O2721     Co2729   1.984       .  S
O2722      C2735   1.288       .  A
O2722     Co2730   2.036       .  S
O2723      C2736   1.286       .  A
O2723     Co2731   2.027       .  S
O2724      C2736   1.263       .  A
O2724     Co2729   1.973       .  S
O2725      C2735   1.262       .  A
O2725     Co2728   1.969       .  S
O2726      C2733   1.289       .  A
O2726     Co2731   2.018       .  S
O2727      C2734   1.291       .  A
O2727     Co2730   2.026       .  S
Co2728     O2732   2.088       .  S
Co2729     O2732   2.085       .  S
Co2730     O2732   2.089       .  S
Co2731     O2732   2.089       .  S
