geometry optimzed in LAMMPS
_audit_creation_date              2020-11-30 
_audit_creation_method            'lammps2cif' 
_symmetry_space_group_name_H-M    'P1' 
_symmetry_Int_Tables_number       1 
_symmetry_cell_setting            triclinic 
loop_ 
_symmetry_equiv_pos_as_xyz 
  x,y,z 
_cell_length_a                    55.44174288 
_cell_length_b                    55.61224691016444 
_cell_length_c                    55.582919668559285 
_cell_angle_alpha                 90.4242212717653 
_cell_angle_beta                  90.29977506555673 
_cell_angle_gamma                 90.26504885769361 
loop_ 
_atom_site_label 
_atom_site_type_symbol 
_atom_site_fract_x 
_atom_site_fract_y 
_atom_site_fract_z 
_atom_site_charge 
O1          O  0.50799998  0.47939905  0.43688669    -0.78000
C2          C  0.44234744  0.52718987  0.45062358     0.83000
O3          O  0.53022319  0.53933486  0.49074882    -0.79100
O4          O  0.45150509  0.52235706  0.52725150    -0.80600
O5          O  0.46609172  0.44297985  0.50795250    -0.80400
O6          O  0.50802388  0.44691194  0.45980653    -0.79000
Zn7        Zn  0.49087544  0.50451984  0.45630830     1.55700
O8          O  0.43642819  0.46988552  0.50883448    -0.80400
Cd9        Cd  0.49395968  0.46118354  0.49133231     1.59700
Cd10       Cd  0.50967903  0.51536717  0.51162701     1.59600
O11         O  0.52155995  0.45681807  0.51460431    -0.80400
O12         O  0.48746805  0.49598171  0.48942311    -1.90900
Cd13       Cd  0.45325850  0.50090247  0.49761765     1.59900
O14         O  0.53265888  0.49196780  0.53087304    -0.80400
O15         O  0.43588344  0.52090005  0.47162860    -0.79000
C16         C  0.52770938  0.54328826  0.46825788     0.83500
C17         C  0.51456632  0.45789231  0.44083071     0.83200
O18         O  0.46150779  0.51897240  0.44114682    -0.78000
C19         C  0.44508924  0.44950377  0.51454393     0.84000
O20         O  0.51319730  0.53132858  0.45522413    -0.78100
C21         C  0.53480215  0.46914309  0.52872675     0.84100
C22         C  0.46597564  0.53522015  0.53962794     0.84400
O23         O  0.48870531  0.53556165  0.53583714    -0.80500
O24         O  0.47587749  0.19603023  0.22212247    -0.78000
C25         C  0.54495925  0.20210143  0.26647251     0.83000
O26         O  0.46611504  0.25070963  0.28503033    -0.79100
O27         O  0.54576894  0.28003617  0.25934616    -0.80600
O28         O  0.52197557  0.26270823  0.18396899    -0.80400
O29         O  0.47640799  0.21858957  0.18946585    -0.79000
Zn30       Zn  0.49675541  0.21296033  0.24612195     1.55700
O31         O  0.55445699  0.25805651  0.20725551    -0.80400
Cd32       Cd  0.49415752  0.24831897  0.20350796     1.59700
Cd33       Cd  0.48597081  0.26928547  0.25882853     1.59600
O34         O  0.46830096  0.27355751  0.20140194    -0.80400
O35         O  0.50354968  0.24535607  0.23758786    -1.90900
Cd36       Cd  0.53884980  0.24969269  0.23992561     1.59900
O37         O  0.46249489  0.28991246  0.23770840    -0.80400
O38         O  0.55363664  0.22249853  0.26058752    -0.79000
C39         C  0.46554258  0.22798565  0.28817727     0.83500
C40         C  0.46840873  0.20054135  0.20100058     0.83200
O41         O  0.52498727  0.19452413  0.25790350    -0.78000
C42         C  0.54432674  0.26616278  0.18831358     0.84000
O43         O  0.47669178  0.21354888  0.27459339    -0.78100
C44         C  0.45782713  0.28837624  0.21520854     0.84100
C45         C  0.53389158  0.29435418  0.27257993     0.84400
O46         O  0.51110787  0.29238843  0.27546024    -0.80500
C47         C  0.77851167  0.76227696  0.79496284     0.80700
N48         N  0.78837358  0.77111087  0.77446772    -0.77600
C49         C  0.77952860  0.79131802  0.76401208     0.83200
N50         N  0.76055752  0.80274418  0.77446823    -0.77500
C51         C  0.75042775  0.79424576  0.79497713     0.83200
N52         N  0.75967810  0.77409416  0.80514268    -0.79300
C53         C  0.76288133  0.96443828  0.95335256     0.80700
N54         N  0.77306208  0.95429620  0.97311919    -0.77600
C55         C  0.79334897  0.96366399  0.98338417     0.83200
N56         N  0.80352470  0.98354280  0.97348154    -0.77500
C57         C  0.79378322  0.99403781  0.95364851     0.83200
N58         N  0.77343632  0.98427520  0.94368067    -0.79300
C59         C  0.94769214  0.79872830  0.98502125     0.80700
N60         N  0.93592433  0.77968051  0.97473270    -0.77600
C61         C  0.94528295  0.76803906  0.95528050     0.83200
N62         N  0.96649923  0.77599941  0.94593793    -0.77500
C63         C  0.97844760  0.79511428  0.95582933     0.83200
N64         N  0.96883370  0.80634597  0.97534459    -0.79300
C65         C  0.94703754  0.94692092  0.76819088     0.80700
N66         N  0.96698709  0.93670937  0.77811507    -0.77600
C67         C  0.97842295  0.94721645  0.79724036     0.83200
N68         N  0.96942668  0.96796901  0.80659352    -0.77500
C69         C  0.94950406  0.97843978  0.79698027     0.83200
N70         N  0.93843177  0.96773036  0.77779677    -0.79300
N71         N  0.06620542  0.86992975  0.87614031    -0.36100
N72         N  0.10359262  0.84076919  0.89945615    -0.56700
N73         N  0.14033684  0.86775468  0.87331221    -0.36100
N74         N  0.10304773  0.89459220  0.84756503    -0.56700
C75         C  0.05226402  0.85374754  0.88780293     0.27500
C76         C  0.05196542  0.88155757  0.86015097     0.27500
C77         C  0.15462553  0.85186544  0.88477700     0.27500
C78         C  0.15434202  0.88008182  0.85784914     0.27500
C79         C  0.08425002  0.83251702  0.91166701     0.36100
C80         C  0.12343158  0.83174233  0.91036372     0.36100
C81         C  0.08346853  0.90697780  0.84013698     0.36100
C82         C  0.12270337  0.90661660  0.83962791     0.36100
C83         C  0.02871636  0.85546037  0.87942405    -0.21400
C84         C  0.02853897  0.87288859  0.86200354    -0.21400
C85         C  0.17807635  0.85412042  0.87647095    -0.21400
C86         C  0.17790306  0.87185505  0.85951489    -0.21400
C87         C  0.09182971  0.81763860  0.93011032    -0.22500
C88         C  0.11661533  0.81714701  0.92927876    -0.22500
C89         C  0.09071964  0.92682863  0.82702064    -0.22500
C90         C  0.11554978  0.92661748  0.82673147    -0.22500
C91         C  0.05982287  0.83788141  0.90628542    -0.17800
C92         C  0.05913531  0.90035164  0.84447437    -0.17800
C93         C  0.14700431  0.89956084  0.84334572    -0.17800
C94         C  0.14763901  0.83639475  0.90358402    -0.17800
H95         H  0.01320772  0.84515897  0.88519887     0.15100
H96         H  0.01285107  0.87855222  0.85189352     0.15100
H97         H  0.19385739  0.84432277  0.88229146     0.15100
H98         H  0.19356561  0.87824748  0.84990011     0.15100
H99         H  0.08068593  0.80819040  0.94291341     0.13400
H100        H  0.12828110  0.80724745  0.94129429     0.13400
H101        H  0.07931902  0.94015241  0.81864647     0.13400
H102        H  0.12701977  0.93970054  0.81803580     0.13400
H103        H  0.08413920  0.87358259  0.87970229     0.26600
H104        H  0.12243706  0.87099810  0.87685176     0.26600
N105        N  0.87292471  0.88368276  0.06956392    -0.36100
N106        N  0.84968256  0.91375759  0.10563806    -0.56700
N107        N  0.87554383  0.88774873  0.14323989    -0.36100
N108        N  0.90168265  0.86020214  0.10720183    -0.56700
C109        C  0.86218931  0.90023761  0.05531300     0.27500
C110        C  0.88945072  0.87196581  0.05606230     0.27500
C111        C  0.86632012  0.90627279  0.15599448     0.27500
C112        C  0.89318361  0.87804329  0.15686073     0.27500
C113        C  0.83638557  0.91999713  0.08622411     0.36100
C114        C  0.83782477  0.92199943  0.12519728     0.36100
C115        C  0.90821963  0.84652981  0.08810503     0.36100
C116        C  0.90929379  0.84862548  0.12719979     0.36100
C117        C  0.87186048  0.89884114  0.03239792    -0.21400
C118        C  0.88906226  0.88109219  0.03287800    -0.21400
C119        C  0.87821936  0.90835751  0.17793103    -0.21400
C120        C  0.89510965  0.89046396  0.17852331    -0.21400
C121        C  0.81608191  0.93251370  0.09345926    -0.22500
C122        C  0.81696150  0.93372669  0.11818396    -0.22500
C123        C  0.92044898  0.82634037  0.09604682    -0.22500
C124        C  0.92113688  0.82769009  0.12080537    -0.22500
C125        C  0.84309787  0.91575994  0.06205029    -0.17800
C126        C  0.90399952  0.85241209  0.06360694    -0.17800
C127        C  0.90648086  0.85728900  0.15105053    -0.17800
C128        C  0.84641895  0.92036655  0.14914608    -0.17800
H129        H  0.86694897  0.90941509  0.01686843     0.15100
H130        H  0.89995386  0.87544990  0.01776892     0.15100
H131        H  0.87487236  0.92124565  0.19220159     0.15100
H132        H  0.90729144  0.88689516  0.19333745     0.15100
H133        H  0.80217233  0.94007952  0.08210939     0.13400
H134        H  0.80387683  0.94242870  0.12966939     0.13400
H135        H  0.92807257  0.81209682  0.08515782     0.13400
H136        H  0.92946153  0.81480896  0.13271965     0.13400
H137        H  0.86830663  0.87961491  0.08709855     0.26600
H138        H  0.86901771  0.88106186  0.12699500     0.26600
N139        N  0.86305254  0.86897879  0.68170984    -0.36100
N140        N  0.88882841  0.89779503  0.64633640    -0.56700
N141        N  0.86236724  0.87282590  0.60793573    -0.36100
N142        N  0.83396401  0.84690517  0.64321754    -0.56700
C143        C  0.87485854  0.88465927  0.69643041     0.27500
C144        C  0.84561105  0.85815955  0.69480225     0.27500
C145        C  0.87279901  0.89091601  0.59564609     0.27500
C146        C  0.84432350  0.86410980  0.59392254     0.27500
C147        C  0.90201158  0.90358580  0.66608894     0.36100
C148        C  0.90135271  0.90576604  0.62713181     0.36100
C149        C  0.82570673  0.83399649  0.66199547     0.36100
C150        C  0.82574002  0.83585565  0.62299608     0.36100
C151        C  0.86493026  0.88359123  0.71925891    -0.21400
C152        C  0.84657547  0.86685884  0.71825629    -0.21400
C153        C  0.86135209  0.89361810  0.57358150    -0.21400
C154        C  0.84338755  0.87668700  0.57249026    -0.21400
C155        C  0.92289891  0.91556438  0.65937497    -0.22500
C156        C  0.92246046  0.91695431  0.63467887    -0.22500
C157        C  0.81181386  0.81484489  0.65366633    -0.22500
C158        C  0.81194958  0.81594753  0.62895400    -0.22500
C159        C  0.89493418  0.89924034  0.69014048    -0.17800
C160        C  0.82952852  0.83989532  0.68655559    -0.17800
C161        C  0.82934184  0.84439122  0.59933481    -0.17800
C162        C  0.89334381  0.90408734  0.60299373    -0.17800
H163        H  0.87040779  0.89372953  0.73507778     0.15100
H164        H  0.83527301  0.86165545  0.73317653     0.15100
H165        H  0.86561831  0.90636064  0.55958853     0.15100
H166        H  0.83107413  0.87392049  0.55753829     0.15100
H167        H  0.93697232  0.92261283  0.67104644     0.13400
H168        H  0.93604965  0.92531535  0.62356197     0.13400
H169        H  0.80247008  0.80152300  0.66428216     0.13400
H170        H  0.80270893  0.80367981  0.61678917     0.13400
H171        H  0.86744147  0.86499101  0.66405704     0.26600
H172        H  0.86823223  0.86583326  0.62418064     0.26600
N173        N  0.85869683  0.68197756  0.87924231    -0.36100
N174        N  0.88991578  0.64640342  0.90168635    -0.56700
N175        N  0.86433594  0.60791789  0.87563583    -0.36100
N176        N  0.83578255  0.64361971  0.85041259    -0.56700
C177        C  0.87548312  0.69651986  0.88972091     0.27500
C178        C  0.84707858  0.69503244  0.86230247     0.27500
C179        C  0.88300039  0.59548941  0.88498188     0.27500
C180        C  0.85434555  0.59404331  0.85812707     0.27500
C181        C  0.89680203  0.66598965  0.91463638     0.36100
C182        C  0.89962868  0.62709543  0.91272277     0.36100
C183        C  0.82190062  0.66234191  0.84366949     0.36100
C184        C  0.82456524  0.62345712  0.84228739     0.36100
C185        C  0.87420770  0.71919168  0.87958647    -0.21400
C186        C  0.85635269  0.71824995  0.86230494    -0.21400
C187        C  0.88471941  0.57334277  0.87348049    -0.21400
C188        C  0.86664052  0.57243878  0.85651405    -0.21400
C189        C  0.91116596  0.65909233  0.93385167    -0.22500
C190        C  0.91297126  0.63448107  0.93262792    -0.22500
C191        C  0.80185011  0.65404083  0.83104682    -0.22500
C192        C  0.80355648  0.62941449  0.83014783    -0.22500
C193        C  0.89164346  0.69011972  0.90848739    -0.17800
C194        C  0.82786162  0.68688528  0.84728438    -0.17800
C195        C  0.83385084  0.59988144  0.84421733    -0.17800
C196        C  0.89783903  0.60302245  0.90435706    -0.17800
H197        H  0.88515341  0.73478455  0.88402590     0.15100
H198        H  0.85091542  0.73300229  0.85093233     0.15100
H199        H  0.89761865  0.55923130  0.87699700     0.15100
H200        H  0.86292219  0.55750336  0.84443896     0.15100
H201        H  0.91966926  0.67060584  0.94722747     0.13400
H202        H  0.92316317  0.62332522  0.94485653     0.13400
H203        H  0.78759982  0.66463623  0.82308968     0.13400
H204        H  0.79092417  0.61729978  0.82133112     0.13400
H205        H  0.85467372  0.66444600  0.88406451     0.26600
H206        H  0.85800451  0.62434411  0.88176778     0.26600
N207        N  0.67408520  0.88204693  0.87731870    -0.36100
N208        N  0.63522204  0.85644891  0.85273387    -0.56700
N209        N  0.60008008  0.88582544  0.87861540    -0.36100
N210        N  0.63883185  0.91394599  0.90032444    -0.56700
C211        C  0.68683169  0.86975708  0.86052422     0.27500
C212        C  0.68881930  0.89913862  0.88686241     0.27500
C213        C  0.58575608  0.87445056  0.86244291     0.27500
C214        C  0.58770495  0.90510600  0.88669360     0.27500
C215        C  0.65389332  0.84294446  0.84505376     0.36100
C216        C  0.61490655  0.84418804  0.84693883     0.36100
C217        C  0.65888064  0.92083233  0.91253073     0.36100
C218        C  0.61984941  0.92351856  0.91217463     0.36100
C219        C  0.71008428  0.87900026  0.85963401    -0.21400
C220        C  0.71135339  0.89746744  0.87626443    -0.21400
C221        C  0.56395180  0.88645685  0.86042962    -0.21400
C222        C  0.56524485  0.90588855  0.87564628    -0.21400
C223        C  0.64537461  0.82210730  0.83402137    -0.22500
C224        C  0.62063871  0.82286977  0.83527890    -0.22500
C225        C  0.65260506  0.93509848  0.93207504    -0.22500
C226        C  0.62787389  0.93678158  0.93185000    -0.22500
C227        C  0.67844167  0.84977889  0.84672579    -0.17800
C228        C  0.68282763  0.91555235  0.90556437    -0.17800
C229        C  0.59546583  0.92122319  0.90482167    -0.17800
C230        C  0.59128543  0.85293823  0.85020733    -0.17800
H231        H  0.72469255  0.87298461  0.84827081     0.15100
H232        H  0.72711130  0.90842152  0.88011982     0.15100
H233        H  0.54861627  0.88171482  0.84920986     0.15100
H234        H  0.55113698  0.91899803  0.87840268     0.15100
H235        H  0.65586628  0.80793744  0.82576531     0.13400
H236        H  0.60827862  0.80949378  0.82806301     0.13400
H237        H  0.66459915  0.94351569  0.94508650     0.13400
H238        H  0.61705558  0.94667745  0.94466073     0.13400
H239        H  0.65670643  0.87827521  0.88292982     0.26600
H240        H  0.61667324  0.87988273  0.88480909     0.26600
N241        N  0.87756280  0.07302971  0.87399738    -0.36100
N242        N  0.90449540  0.10641456  0.84389938    -0.56700
N243        N  0.87982310  0.14651368  0.86737324    -0.36100
N244        N  0.85054982  0.11321955  0.89502173    -0.56700
C245        C  0.88820116  0.05743856  0.85853827     0.27500
C246        C  0.85967619  0.06097325  0.88530292     0.27500
C247        C  0.89119810  0.15812039  0.84941469     0.27500
C248        C  0.86319738  0.16177106  0.87638646     0.27500
C249        C  0.91620938  0.08597175  0.83801114     0.36100
C250        C  0.91742164  0.12477528  0.83464330     0.36100
C251        C  0.84156548  0.09517151  0.90850749     0.36100
C252        C  0.84321378  0.13406012  0.90528892     0.36100
C253        C  0.87721361  0.03508034  0.86039233    -0.21400
C254        C  0.85928707  0.03729280  0.87724136    -0.21400
C255        C  0.88184384  0.18111093  0.84716706    -0.21400
C256        C  0.86421723  0.18341420  0.86417594    -0.21400
C257        C  0.93655135  0.09134814  0.82463257    -0.22500
C258        C  0.93732916  0.11596857  0.82252050    -0.22500
C259        C  0.82810228  0.10460064  0.92726934    -0.22500
C260        C  0.82917360  0.12924316  0.92524195    -0.22500
C261        C  0.90800291  0.06248161  0.84328132    -0.17800
C262        C  0.84426979  0.07032689  0.90339068    -0.17800
C263        C  0.84793361  0.15728942  0.89611024    -0.17800
C264        C  0.91078302  0.14924969  0.83591306    -0.17800
H265        H  0.88163259  0.01879272  0.85062307     0.15100
H266        H  0.84733012  0.02299912  0.88289489     0.15100
H267        H  0.88730642  0.19497853  0.83474515     0.15100
H268        H  0.85353882  0.19936496  0.86729702     0.15100
H269        H  0.94936867  0.07883149  0.81702543     0.13400
H270        H  0.95083103  0.12619169  0.81294410     0.13400
H271        H  0.81836772  0.09475400  0.94088304     0.13400
H272        H  0.82042822  0.14212399  0.93695444     0.13400
H273        H  0.88290671  0.09056793  0.87746119     0.26600
H274        H  0.88419245  0.12976344  0.87404722     0.26600
O275        O  0.26501067  0.55656608  0.22583869    -0.78000
C276        C  0.19711593  0.55256706  0.27196852     0.83000
O277        O  0.28539430  0.51574842  0.29380264    -0.79100
O278        O  0.20716842  0.47775232  0.28204918    -0.80600
O279        O  0.22027739  0.48387933  0.19932847    -0.80400
O280        O  0.26494849  0.52752123  0.19809556    -0.79000
Zn281      Zn  0.24695380  0.54301288  0.25361853     1.55700
O282        O  0.19201564  0.48432189  0.22749502    -0.80400
Cd283      Cd  0.24905976  0.50004615  0.21644139     1.59700
Cd284      Cd  0.26544019  0.49097990  0.27281990     1.59600
O285        O  0.27454106  0.47430362  0.21566176    -0.80400
O286        O  0.24308561  0.50898661  0.25023759    -1.90900
Cd287      Cd  0.20881107  0.50188315  0.25562475     1.59900
O288        O  0.28915728  0.46914969  0.25277550    -0.80400
O289        O  0.19060248  0.53079432  0.26904185    -0.79000
C290        C  0.28306144  0.53859244  0.29451193     0.83500
C291        C  0.27191973  0.54803190  0.20573303     0.83200
O292        O  0.21702087  0.56039613  0.26372683    -0.78000
C293        C  0.19965292  0.47751729  0.20702480     0.84000
O294        O  0.26866835  0.54955978  0.28072467    -0.78100
C295        C  0.28907532  0.46448737  0.23021084     0.84100
C296        C  0.22139197  0.46643637  0.29573319     0.84400
O297        O  0.24430012  0.46917114  0.29529640    -0.80500
O298        O  0.26387939  0.19857453  0.51982854    -0.78000
C299        C  0.19946956  0.20299894  0.47202486     0.83000
O300        O  0.28582821  0.25188025  0.45631612    -0.79100
O301        O  0.20438576  0.27349061  0.46330868    -0.80600
O302        O  0.22116515  0.27495713  0.54625042    -0.80400
O303        O  0.25230334  0.22091054  0.55085459    -0.79000
Zn304      Zn  0.24994236  0.21491401  0.49069735     1.55700
O305        O  0.19188167  0.27325497  0.51887127    -0.80400
Cd306      Cd  0.24630994  0.25192008  0.53225114     1.59700
Cd307      Cd  0.26242710  0.27111016  0.47921081     1.59600
O308        O  0.27710915  0.27001617  0.53736694    -0.80400
O309        O  0.24223096  0.24736912  0.49762503    -1.90900
Cd310      Cd  0.20765157  0.25238057  0.49227234     1.59900
O311        O  0.28313663  0.29137294  0.50403146    -0.80400
O312        O  0.19002225  0.22155605  0.48165033    -0.79000
C313        C  0.28856480  0.22909780  0.45476232     0.83500
C314        C  0.26381391  0.20305853  0.54235143     0.83200
O315        O  0.22180739  0.19835022  0.47467383    -0.78000
C316        C  0.20100587  0.28213245  0.53809127     0.84000
O317        O  0.27607772  0.21449386  0.46697355    -0.78100
C318        C  0.28791586  0.28646188  0.52600573     0.84100
C319        C  0.21710258  0.28958405  0.45341844     0.84400
O320        O  0.23941949  0.29288436  0.45852825    -0.80500
O321        O  0.51070315  0.78317231  0.80624407    -0.78000
C322        C  0.44447403  0.73627792  0.79886865     0.83000
O323        O  0.53367259  0.71955262  0.75670996    -0.79100
O324        O  0.45358887  0.72594509  0.72668399    -0.80600
O325        O  0.46751100  0.81099451  0.73204165    -0.80400
O326        O  0.50464078  0.81376667  0.78149528    -0.79000
Zn327      Zn  0.49498111  0.75505887  0.78951032     1.55700
O328        O  0.44002224  0.78189199  0.72875597    -0.80400
Cd329      Cd  0.49470762  0.79547785  0.75117642     1.59700
Cd330      Cd  0.51183295  0.74143390  0.73471050     1.59600
O331        O  0.52334104  0.80019220  0.72948013    -0.80400
O332        O  0.48964316  0.76090234  0.75614528    -1.90900
Cd333      Cd  0.45517214  0.75466699  0.74902501     1.59900
O334        O  0.53344958  0.76464108  0.71372193    -0.80400
O335        O  0.43604687  0.74284240  0.77858545    -0.79000
C336        C  0.53245561  0.71672326  0.77949094     0.83500
C337        C  0.51378002  0.80508816  0.80052797     0.83200
O338        O  0.46590316  0.74150494  0.80542074    -0.78000
C339        C  0.44805554  0.80260760  0.72310066     0.84000
O340        O  0.51833354  0.72896494  0.79251590    -0.78100
C341        C  0.53588098  0.78750622  0.71530066     0.84100
C342        C  0.46791589  0.71452027  0.71311360     0.84400
O343        O  0.49059627  0.71882409  0.71254150    -0.80500
O344        O  0.19078667  0.72984403  0.98634534    -0.78000
C345        C  0.19432726  0.78110996  0.05052353     0.83000
O346        O  0.24169349  0.79100735  0.96376853    -0.79100
O347        O  0.26822459  0.78789583  0.04673283    -0.80600
O348        O  0.25408442  0.70103663  0.03850007    -0.80400
O349        O  0.21943764  0.70201209  0.98529938    -0.79000
Zn350      Zn  0.20652766  0.75797678  0.00282457     1.55700
O351        O  0.26105216  0.73281419  0.06212614    -0.80400
Cd352      Cd  0.24569367  0.71775023  0.00663699     1.59700
Cd353      Cd  0.26255977  0.77147050  0.98870159     1.59600
O354        O  0.27606432  0.71259796  0.98721906    -0.80400
O355        O  0.23987851  0.75256820  0.01005125    -1.90900
Cd356      Cd  0.24446594  0.76048294  0.04425574     1.59900
O357        O  0.28566852  0.74756954  0.97024807    -0.80400
O358        O  0.21438413  0.77505303  0.05988798    -0.79000
C359        C  0.21870414  0.79260963  0.96282940     0.83500
C360        C  0.19918035  0.71012058  0.97823291     0.83200
O361        O  0.18813739  0.77408672  0.02951819    -0.78000
C362        C  0.26375092  0.71060227  0.05711756     0.84000
O363        O  0.20507586  0.78151699  0.97718841    -0.78100
C364        C  0.28889328  0.72498167  0.97307929     0.84100
C365        C  0.28217858  0.79946104  0.03296879     0.84400
O366        O  0.28320208  0.79533924  0.01030600    -0.80500
O367        O  0.02408926  0.49442811  0.05220695    -0.78000
C368        C  0.97733126  0.56263139  0.04847751     0.83000
O369        O  0.95764345  0.47729564  0.00635959    -0.79100
O370        O  0.97044316  0.55493845  0.97123646    -0.80600
O371        O  0.05162517  0.54093291  0.97984347    -0.80400
O372        O  0.05542475  0.50148649  0.02868123    -0.79000
Zn373      Zn  0.99693633  0.51363644  0.03812171     1.55700
O374        O  0.02447716  0.57016609  0.98218371    -0.80400
Cd375      Cd  0.03657295  0.51346698  0.99912160     1.59700
Cd376      Cd  0.98103526  0.49677334  0.98395962     1.59600
O377        O  0.03978371  0.48467469  0.97724111    -0.80400
O378        O  0.00188001  0.51879897  0.00462002    -1.90900
Cd379      Cd  0.99562985  0.55293754  0.99771963     1.59900
O380        O  0.00323370  0.47258330  0.96496342    -0.80400
O381        O  0.98011275  0.56955635  0.02686385    -0.79000
C382        C  0.95529403  0.47904065  0.02916752     0.83500
C383        C  0.04593163  0.49061827  0.04636971     0.83200
O384        O  0.98674797  0.54324659  0.05610628    -0.78000
C385        C  0.04405117  0.56164693  0.97388062     0.84000
O386        O  0.96880446  0.49253260  0.04187771    -0.78100
C387        C  0.02620551  0.47054066  0.96534490     0.84100
C388        C  0.95846878  0.54037774  0.95812735     0.84400
O389        O  0.96015247  0.51754596  0.96014736    -0.80500
O390        O  0.30332637  0.01921154  0.78448823    -0.78000
C391        C  0.29765046  0.95843979  0.72784282     0.83000
O392        O  0.25448791  0.03865882  0.71447309    -0.79100
O393        O  0.22145479  0.95937837  0.73032280    -0.80600
O394        O  0.22867182  0.97427279  0.80821256    -0.80400
O395        O  0.27458914  0.01746929  0.81225059    -0.79000
Zn396      Zn  0.28757359  0.00507467  0.75473019     1.55700
O397        O  0.23637929  0.94427834  0.78275258    -0.80400
Cd398      Cd  0.24633329  0.00303251  0.79313588     1.59700
Cd399      Cd  0.23305915  0.01769457  0.73707357     1.59600
O400        O  0.22287455  0.03036476  0.79481807    -0.80400
O401        O  0.25415673  0.99774523  0.75913383    -1.90900
Cd402      Cd  0.24937679  0.96307326  0.75345074     1.59900
O403        O  0.21235047  0.04138537  0.75767721    -0.80400
O404        O  0.27789164  0.94889767  0.73459864    -0.79000
C405        C  0.27695724  0.04300270  0.71713533     0.83500
C406        C  0.29505537  0.02493782  0.80511113     0.83200
O407        O  0.30464557  0.97880693  0.73609499    -0.78000
C408        C  0.22598447  0.95248229  0.80151231     0.84000
O409        O  0.28974217  0.03205225  0.73245033    -0.78100
C410        C  0.21144231  0.04382752  0.78050227     0.84100
C411        C  0.20816480  0.97254643  0.71735170     0.84400
O412        O  0.21036835  0.99538252  0.71675765    -0.80500
O413        O  0.68312650  0.73007609  0.47832437    -0.78000
C414        C  0.68966143  0.77755717  0.54217830     0.83000
O415        O  0.73933321  0.79032018  0.45570176    -0.79100
O416        O  0.76029980  0.78372197  0.53844564    -0.80600
O417        O  0.75460816  0.69887225  0.52406228    -0.80400
O418        O  0.70645767  0.69825664  0.48390919    -0.79000
Zn419      Zn  0.70117030  0.75801242  0.49248210     1.55700
O420        O  0.75682566  0.72844964  0.55105915    -0.80400
Cd421      Cd  0.73721121  0.71495337  0.49583891     1.59700
Cd422      Cd  0.75837088  0.76838749  0.48036441     1.59600
O423        O  0.76058248  0.70920662  0.46884486    -0.80400
O424        O  0.73371701  0.74990137  0.49996330    -1.90900
Cd425      Cd  0.73803833  0.75547898  0.53457018     1.59900
O426        O  0.78010341  0.74345960  0.46114767    -0.80400
O427        O  0.70764735  0.76706061  0.55170321    -0.79000
C428        C  0.71646918  0.79220621  0.45295663     0.83500
C429        C  0.68767076  0.70789614  0.47504558     0.83200
O430        O  0.68478838  0.77523697  0.51986110    -0.78000
C431        C  0.76288263  0.70766809  0.54363470     0.84000
O432        O  0.70166626  0.78088848  0.46600885    -0.78100
C433        C  0.77690298  0.72080340  0.45794582     0.84100
C434        C  0.77588421  0.79490040  0.52619908     0.84400
O435        O  0.77920287  0.79060129  0.50378268    -0.80500
O436        O  0.01448883  0.77968128  0.31018774    -0.78000
C437        C  0.94756267  0.73340775  0.30271067     0.83000
O438        O  0.03336630  0.72197685  0.25214467    -0.79100
O439        O  0.94901096  0.73300191  0.23026693    -0.80600
O440        O  0.96919598  0.81578862  0.24046140    -0.80400
O441        O  0.01162329  0.81229615  0.28763605    -0.79000
Zn442      Zn  0.99701171  0.75379659  0.29163797     1.55700
O443        O  0.93917124  0.78902975  0.23907003    -0.80400
Cd444      Cd  0.99678507  0.79747787  0.25695880     1.59700
Cd445      Cd  0.00818204  0.74399851  0.23419128     1.59600
O446        O  0.02359049  0.80192782  0.23295862    -0.80400
O447        O  0.98955887  0.76288537  0.25941352    -1.90900
Cd448      Cd  0.95440386  0.75911084  0.25516054     1.59900
O449        O  0.02685528  0.76794740  0.21167660    -0.80400
O450        O  0.93783739  0.74366464  0.28465211    -0.79000
C451        C  0.03498503  0.71865591  0.27483650     0.83500
C452        C  0.02014382  0.80142273  0.30586472     0.83200
O453        O  0.96962962  0.73698647  0.30817938    -0.78000
C454        C  0.94843228  0.80913140  0.23297797     0.84000
O455        O  0.02162974  0.72939269  0.28975454    -0.78100
C456        C  0.03212838  0.79007741  0.21542057     0.84100
C457        C  0.96113440  0.72048626  0.21555443     0.84400
O458        O  0.98405688  0.72248753  0.21371793    -0.80500
O459        O  0.55235855  0.04273320  0.98714632    -0.78000
C460        C  0.54895145  0.98748954  0.04710225     0.83000
O461        O  0.50480769  0.97770217  0.95897229    -0.79100
O462        O  0.47800639  0.97445867  0.03817672    -0.80600
O463        O  0.47984602  0.06224282  0.03856827    -0.80400
O464        O  0.52435736  0.07069453  0.99292994    -0.79000
Zn465      Zn  0.53760175  0.01214291  0.99953843     1.55700
O466        O  0.47613983  0.02780894  0.05817231    -0.80400
Cd467      Cd  0.49663617  0.05051503  0.00732278     1.59700
Cd468      Cd  0.48289419  0.99742745  0.98277688     1.59600
O469        O  0.47007143  0.05609385  0.98318553    -0.80400
O470        O  0.50403461  0.01577844  0.00648140    -1.90900
Cd471      Cd  0.49831406  0.00466096  0.03947197     1.59900
O472        O  0.46146645  0.02194546  0.96355088    -0.80400
O473        O  0.52910988  0.99376356  0.05666068    -0.79000
C474        C  0.52780639  0.97808095  0.95747936     0.83500
C475        C  0.54424200  0.06386078  0.98374911     0.83200
O476        O  0.55482606  0.99423571  0.02602610    -0.78000
C477        C  0.47012057  0.04961714  0.05500991     0.84000
O478        O  0.54081740  0.99058478  0.97163132    -0.78100
C479        C  0.45839572  0.04445815  0.96722932     0.84100
C480        C  0.46253271  0.96607838  0.02346748     0.84400
O481        O  0.46051678  0.97357932  0.00185660    -0.80500
C482        C  0.29834776  0.81061429  0.26321817     0.80700
N483        N  0.30779745  0.78991820  0.27202317    -0.77600
C484        C  0.29806391  0.77880322  0.29138197     0.83200
N485        N  0.27845204  0.78874740  0.30210105    -0.77500
C486        C  0.26861146  0.80954081  0.29383633     0.83200
N487        N  0.27873621  0.82037341  0.27431631    -0.79300
N488        N  0.37634251  0.69118335  0.36922277    -0.36100
N489        N  0.39847601  0.65408153  0.39929406    -0.56700
N490        N  0.36987466  0.61779246  0.37387144    -0.36100
N491        N  0.34521654  0.65490309  0.34641039    -0.56700
C492        C  0.38814418  0.70504575  0.38567232     0.27500
C493        C  0.36026469  0.70537497  0.35765273     0.27500
C494        C  0.37923346  0.60452850  0.39185745     0.27500
C495        C  0.35130167  0.60505702  0.36436819     0.27500
C496        C  0.41225645  0.67307480  0.40620009     0.36100
C497        C  0.40922227  0.63411048  0.40801185     0.36100
C498        C  0.33969921  0.67393641  0.33247794     0.36100
C499        C  0.33653828  0.63514968  0.33491235     0.36100
C500        C  0.37968780  0.72844679  0.38424347    -0.21400
C501        C  0.36213714  0.72864433  0.36664278    -0.21400
C502        C  0.36652257  0.58304674  0.39366736    -0.21400
C503        C  0.34881611  0.58345905  0.37642536    -0.21400
C504        C  0.43167710  0.66513885  0.41977836    -0.22500
C505        C  0.42977926  0.64044965  0.42087387    -0.22500
C506        C  0.32721626  0.66626591  0.31212626    -0.22500
C507        C  0.32525189  0.64165307  0.31365235    -0.22500
C508        C  0.40693286  0.69752471  0.40138575    -0.17800
C509        C  0.34456703  0.69822819  0.33858462    -0.17800
C510        C  0.33758467  0.61151074  0.34403450    -0.17800
C511        C  0.39992358  0.61042869  0.40559566    -0.17800
H512        H  0.38553446  0.74384868  0.39480779     0.15100
H513        H  0.35193943  0.74421580  0.36108608     0.15100
H514        H  0.36975692  0.56837226  0.40591567     0.15100
H515        H  0.33583778  0.56924466  0.37290906     0.15100
H516        H  0.44567335  0.67601357  0.42813670     0.13400
H517        H  0.44194475  0.62856502  0.43029639     0.13400
H518        H  0.32019741  0.67726931  0.29773983     0.13400
H519        H  0.31640959  0.62991135  0.30069756     0.13400
H520        H  0.37988285  0.67328513  0.36531053     0.26600
H521        H  0.37686264  0.63378506  0.36731426     0.26600
C522        C  0.48785769  0.96677186  0.29038674     0.80700
N523        N  0.47850025  0.95700148  0.26980724    -0.77600
C524        C  0.45850084  0.96633113  0.25915358     0.83200
N525        N  0.44772520  0.98571003  0.26951207    -0.77500
C526        C  0.45669061  0.99592170  0.29003643     0.83200
N527        N  0.47677217  0.98626712  0.30037002    -0.79300
N528        N  0.57444749  0.88783505  0.36797516    -0.36100
N529        N  0.61248518  0.91149337  0.34081726    -0.56700
N530        N  0.64886126  0.88537577  0.36895376    -0.36100
N531        N  0.61055893  0.85902481  0.39327007    -0.56700
C532        C  0.56109829  0.89894267  0.35090077     0.27500
C533        C  0.56008541  0.87133763  0.37865041     0.27500
C534        C  0.66278066  0.89518206  0.35168473     0.27500
C535        C  0.66169009  0.86736409  0.37898513     0.27500
C536        C  0.59343220  0.92442680  0.33284317     0.36100
C537        C  0.63263439  0.92311939  0.33353808     0.36100
C538        C  0.59070060  0.85259225  0.40577263     0.36100
C539        C  0.62983701  0.85102051  0.40586549     0.36100
C540        C  0.53788093  0.88952443  0.35091857    -0.21400
C541        C  0.53724936  0.87213500  0.36838015    -0.21400
C542        C  0.68481653  0.88348280  0.35093520    -0.21400
C543        C  0.68409762  0.86587933  0.36810608    -0.21400
C544        C  0.60152245  0.94416596  0.32008593    -0.22500
C545        C  0.62632746  0.94338009  0.32057460    -0.22500
C546        C  0.59738989  0.84026675  0.42632031    -0.22500
C547        C  0.62217106  0.83928695  0.42638991    -0.22500
C548        C  0.56884139  0.91813490  0.33609145    -0.17800
C549        C  0.56658888  0.85642377  0.39820975    -0.17800
C550        C  0.65416029  0.85282805  0.39831488    -0.17800
C551        C  0.65660616  0.91499266  0.33717862    -0.17800
H552        H  0.52285942  0.89472063  0.33961194     0.15100
H553        H  0.52165199  0.86141547  0.37308522     0.15100
H554        H  0.69986725  0.88719551  0.33918380     0.15100
H555        H  0.69849488  0.85343838  0.37213621     0.15100
H556        H  0.59068637  0.95766802  0.31126999     0.13400
H557        H  0.63834663  0.95615834  0.31215784     0.13400
H558        H  0.58563303  0.83263319  0.43977392     0.13400
H559        H  0.63327156  0.83078261  0.43992525     0.13400
H560        H  0.59194176  0.89218204  0.37301662     0.26600
H561        H  0.63209886  0.89148761  0.37438632     0.26600
N562        N  0.38127890  0.88522722  0.17441210    -0.36100
N563        N  0.40669847  0.90937768  0.13514775    -0.56700
N564        N  0.37784243  0.88214880  0.10022094    -0.36100
N565        N  0.35000482  0.86079713  0.13956757    -0.56700
C566        C  0.39351581  0.90234846  0.18697301     0.27500
C567        C  0.36440825  0.87582094  0.18925421     0.27500
C568        C  0.38905565  0.89776204  0.08542033     0.27500
C569        C  0.35902082  0.87259328  0.08782965     0.27500
C570        C  0.41959969  0.91839781  0.15391606     0.36100
C571        C  0.41818130  0.91611983  0.11482823     0.36100
C572        C  0.34342563  0.84893337  0.15969365     0.36100
C573        C  0.34119767  0.84794244  0.12070088     0.36100
C574        C  0.38450995  0.90350564  0.21022740    -0.21400
C575        C  0.36621035  0.88680896  0.21164631    -0.21400
C576        C  0.37750936  0.89772859  0.06320985    -0.21400
C577        C  0.35843682  0.88207379  0.06481314    -0.21400
C578        C  0.43926124  0.93123446  0.14545078    -0.22500
C579        C  0.43837449  0.92978222  0.12072148    -0.22500
C580        C  0.33020310  0.82857086  0.15360344    -0.22500
C581        C  0.32886359  0.82789218  0.12891391    -0.22500
C582        C  0.41314823  0.91641061  0.17850765    -0.17800
C583        C  0.34809908  0.85688826  0.18351546    -0.17800
C584        C  0.34301652  0.85469832  0.09622333    -0.17800
C585        C  0.40973996  0.91168156  0.09104964    -0.17800
H586        H  0.39051581  0.91512477  0.22479081     0.15100
H587        H  0.35549020  0.88314653  0.22743055     0.15100
H588        H  0.38219328  0.90801136  0.04744189     0.15100
H589        H  0.34566392  0.87808674  0.05052862     0.15100
H590        H  0.45266217  0.94091427  0.15598121     0.13400
H591        H  0.45091196  0.93819837  0.10848097     0.13400
H592        H  0.32233254  0.81557195  0.16568780     0.13400
H593        H  0.31977520  0.81422270  0.11822609     0.13400
H594        H  0.38499795  0.87946759  0.15708358     0.26600
H595        H  0.38337522  0.87741875  0.11736061     0.26600
C596        C  0.26520940  0.96954373  0.45411363     0.80700
N597        N  0.27668790  0.96091193  0.47388012    -0.77600
C598        C  0.29732989  0.97135671  0.48225526     0.83200
N599        N  0.30642663  0.99079816  0.47058225    -0.77500
C600        C  0.29511011  0.99979757  0.45082322     0.83200
N601        N  0.27465240  0.98887661  0.44262723    -0.79300
C602        C  0.45722203  0.80812011  0.47751860     0.80700
N603        N  0.44780780  0.78775274  0.46741817    -0.77600
C604        C  0.45760581  0.77777095  0.44729314     0.83200
N605        N  0.47718978  0.78854958  0.43723910    -0.77500
C606        C  0.48692762  0.80896700  0.44697525     0.83200
N607        N  0.47676480  0.81854603  0.46708682    -0.79300
N608        N  0.37988759  0.89101155  0.56403950    -0.36100
N609        N  0.35296228  0.91553471  0.60231420    -0.56700
N610        N  0.37908600  0.88766205  0.63788019    -0.36100
N611        N  0.40344034  0.86071405  0.59971966    -0.56700
C612        C  0.36321149  0.90290062  0.55081391     0.27500
C613        C  0.39030246  0.87438493  0.54948912     0.27500
C614        C  0.36206302  0.89797996  0.65184859     0.27500
C615        C  0.38811372  0.86897948  0.65037794     0.27500
C616        C  0.34543669  0.92868345  0.58338088     0.36100
C617        C  0.34557580  0.92720051  0.62239769     0.36100
C618        C  0.41561269  0.85321751  0.58006750     0.36100
C619        C  0.41474958  0.85116666  0.61899256     0.36100
C620        C  0.36327887  0.89388064  0.52746217    -0.21400
C621        C  0.38038926  0.87603106  0.52660747    -0.21400
C622        C  0.36056222  0.88591529  0.67355391    -0.21400
C623        C  0.37688274  0.86757678  0.67257424    -0.21400
C624        C  0.33298633  0.94872625  0.59151568    -0.22500
C625        C  0.33304749  0.94775192  0.61623674    -0.22500
C626        C  0.43454514  0.83849183  0.58689922    -0.22500
C627        C  0.43403013  0.83725438  0.61158248    -0.22500
C628        C  0.34846333  0.92220470  0.55886309    -0.17800
C629        C  0.40902763  0.85826404  0.55599396    -0.17800
C630        C  0.40709810  0.85382725  0.64306343    -0.17800
C631        C  0.34845862  0.91855634  0.64608630    -0.17800
H632        H  0.35216169  0.89957345  0.51250679     0.15100
H633        H  0.38493637  0.86542695  0.51088382     0.15100
H634        H  0.34896322  0.88986042  0.68865456     0.15100
H635        H  0.38017424  0.85471893  0.68673001     0.15100
H636        H  0.32451217  0.96249237  0.58076073     0.13400
H637        H  0.32457690  0.96051415  0.62827863     0.13400
H638        H  0.44725520  0.82937956  0.57531110     0.13400
H639        H  0.44624131  0.82704080  0.62276261     0.13400
H640        H  0.38465977  0.89478931  0.58168777     0.26600
H641        H  0.38517007  0.89381983  0.62143367     0.26600
N642        N  0.37054516  0.08185588  0.36429236    -0.36100
N643        N  0.40206776  0.11807588  0.34336015    -0.56700
N644        N  0.37445793  0.15601425  0.36791796    -0.36100
N645        N  0.34566503  0.11976616  0.39179407    -0.56700
C646        C  0.38721458  0.06750243  0.35373712     0.27500
C647        C  0.35831467  0.06833849  0.38037576     0.27500
C648        C  0.39345424  0.16880344  0.35978648     0.27500
C649        C  0.36348810  0.16971556  0.38478630     0.27500
C650        C  0.40952384  0.09873668  0.33049852     0.36100
C651        C  0.41178525  0.13770730  0.33284582     0.36100
C652        C  0.33269344  0.10054094  0.39905534     0.36100
C653        C  0.33403764  0.13954859  0.39990918     0.36100
C654        C  0.38510447  0.04443233  0.36279547    -0.21400
C655        C  0.36698223  0.04496404  0.37959239    -0.21400
C656        C  0.39441996  0.19094340  0.37145340    -0.21400
C657        C  0.37543827  0.19156670  0.38712406    -0.21400
C658        C  0.42430403  0.10610470  0.31190221    -0.22500
C659        C  0.42564730  0.13076168  0.31331303    -0.22500
C660        C  0.31281912  0.10815514  0.41207077    -0.22500
C661        C  0.31363294  0.13286044  0.41254387    -0.22500
C662        C  0.40412941  0.07443855  0.33594202    -0.17800
C663        C  0.33928318  0.07619184  0.39552746    -0.17800
C664        C  0.34259225  0.16344364  0.39769899    -0.17800
C665        C  0.40928715  0.16171730  0.34126858    -0.17800
H666        H  0.39570974  0.02883657  0.35801589     0.15100
H667        H  0.36097757  0.02980184  0.39012718     0.15100
H668        H  0.40743043  0.20525818  0.36890229     0.15100
H669        H  0.37102730  0.20643253  0.39895692     0.15100
H670        H  0.43321221  0.09488789  0.29869864     0.13400
H671        H  0.43580699  0.14223715  0.30138062     0.13400
H672        H  0.29927502  0.09705276  0.42056317     0.13400
H673        H  0.30093539  0.14453697  0.42156568     0.13400
H674        H  0.36717436  0.09965381  0.36022461     0.26600
H675        H  0.36861903  0.13948806  0.36136692     0.26600
N676        N  0.18161727  0.88334755  0.37916604    -0.36100
N677        N  0.14423836  0.90451410  0.41033618    -0.56700
N678        N  0.10846262  0.87603653  0.38483571    -0.36100
N679        N  0.14580842  0.85241541  0.35612982    -0.56700
C680        C  0.19522166  0.89524402  0.39571453     0.27500
C681        C  0.19614478  0.86742803  0.36772439     0.27500
C682        C  0.09498883  0.88487285  0.40303669     0.27500
C683        C  0.09563478  0.85807221  0.37443918     0.27500
C684        C  0.16287543  0.91932847  0.41572554     0.36100
C685        C  0.12409712  0.91528423  0.41873187     0.36100
C686        C  0.16501966  0.84680440  0.34229858     0.36100
C687        C  0.12598274  0.84396654  0.34450884     0.36100
C688        C  0.21875692  0.88692389  0.39465076    -0.21400
C689        C  0.21933596  0.86941384  0.37701692    -0.21400
C690        C  0.07334242  0.87235701  0.40420259    -0.21400
C691        C  0.07372691  0.85548314  0.38615209    -0.21400
C692        C  0.15458167  0.93946541  0.42798031    -0.22500
C693        C  0.12997241  0.93687053  0.42991036    -0.22500
C694        C  0.15739411  0.83426334  0.32197756    -0.22500
C695        C  0.13263470  0.83255553  0.32333076    -0.22500
C696        C  0.18736926  0.91435041  0.41079533    -0.17800
C697        C  0.18937542  0.85204071  0.34831212    -0.17800
C698        C  0.10213974  0.84537745  0.35340394    -0.17800
C699        C  0.10064506  0.90534780  0.41709911    -0.17800
H700        H  0.23400846  0.89296555  0.40536477     0.15100
H701        H  0.23510591  0.85939827  0.37155721     0.15100
H702        H  0.05847398  0.87542129  0.41635819     0.15100
H703        H  0.05919445  0.84310875  0.38184931     0.15100
H704        H  0.16515749  0.95444806  0.43483112     0.13400
H705        H  0.11782045  0.94939434  0.43853528     0.13400
H706        H  0.16850206  0.82710389  0.30768723     0.13400
H707        H  0.12089980  0.82373468  0.31034864     0.13400
H708        H  0.16378838  0.88701600  0.37499234     0.26600
H709        H  0.12452535  0.88308815  0.37853303     0.26600
O710        O  0.69312717  0.03331305  0.26158695    -0.78000
C711        C  0.70442560  0.98179278  0.19773430     0.83000
O712        O  0.74729605  0.97370655  0.28444215    -0.79100
O713        O  0.78091887  0.98900311  0.20343220    -0.80600
O714        O  0.75814631  0.06871744  0.21511969    -0.80400
O715        O  0.71916614  0.06373886  0.26408647    -0.79000
Zn716      Zn  0.71159313  0.00685994  0.24535450     1.55700
O717        O  0.76109173  0.03966504  0.18765017    -0.80400
Cd718      Cd  0.74799921  0.05019117  0.24538162     1.59700
Cd719      Cd  0.76760701  0.99642875  0.26177073     1.59600
O720        O  0.77649468  0.05599934  0.26744297    -0.80400
O721        O  0.74474354  0.01520974  0.24026995    -1.90900
Cd722      Cd  0.75127484  0.00941258  0.20605166     1.59900
O723        O  0.78906797  0.02085755  0.28195504    -0.80400
O724        O  0.72507798  0.98836429  0.19034133    -0.79000
C725        C  0.72451668  0.97000722  0.28354765     0.83500
C726        C  0.69927633  0.05386910  0.26988980     0.83200
O727        O  0.69560749  0.99022333  0.21715540    -0.78000
C728        C  0.76468991  0.06128234  0.19443616     0.84000
O729        O  0.71088848  0.98145008  0.26937667    -0.78100
C730        C  0.79048765  0.04380017  0.28064620     0.84100
C731        C  0.79377818  0.97617922  0.21711614     0.84400
O732        O  0.79067089  0.97545148  0.23990691    -0.80500
O733        O  0.80790187  0.24802681  0.95742564    -0.78000
C734        C  0.79914664  0.31290522  0.00954398     0.83000
O735        O  0.75942150  0.22830804  0.02627365    -0.79100
O736        O  0.72448995  0.30728647  0.00881841    -0.80600
O737        O  0.73232298  0.28705134  0.93003997    -0.80400
O738        O  0.77827830  0.24437294  0.93056076    -0.79000
Zn739      Zn  0.79145773  0.26388335  0.98607376     1.55700
O740        O  0.73435543  0.31854017  0.95479649    -0.80400
Cd741      Cd  0.75014208  0.26036882  0.94788542     1.59700
Cd742      Cd  0.73736405  0.24942093  0.00460289     1.59600
O743        O  0.72456623  0.23475898  0.94776421    -0.80400
O744        O  0.75763254  0.26883524  0.98136128    -1.90900
Cd745      Cd  0.75099040  0.30349714  0.98456156     1.59900
O746        O  0.71308201  0.22764641  0.98550675    -0.80400
O747        O  0.77913105  0.32102747  0.00169729    -0.79000
C748        C  0.78227965  0.22646856  0.02483823     0.83500
C749        C  0.79947917  0.23939454  0.93771555     0.83200
O750        O  0.80715319  0.29242030  0.00291943    -0.78000
C751        C  0.72599642  0.30823045  0.93591072     0.84000
O752        O  0.79458659  0.23886141  0.01030570    -0.78100
C753        C  0.71114216  0.22438111  0.96284714     0.84100
C754        C  0.71334246  0.29451155  0.02393044     0.84400
O755        O  0.71698301  0.27203947  0.02616106    -0.80500
C756        C  0.29050316  0.27485081  0.79959998     0.80700
N757        N  0.29969213  0.28422448  0.77894384    -0.77600
C758        C  0.29009791  0.30443059  0.76898823     0.83200
N759        N  0.27123543  0.31531140  0.78020379    -0.77500
C760        C  0.26186936  0.30635136  0.80088403     0.83200
N761        N  0.27162515  0.28609556  0.81036025    -0.79300
C762        C  0.47605486  0.31189718  0.95146198     0.80700
N763        N  0.46568451  0.29133202  0.94288158    -0.77600
C764        C  0.44597119  0.28162153  0.95359921     0.83200
N765        N  0.43657368  0.29284368  0.97319892    -0.77500
C766        C  0.44656832  0.31343060  0.98220133     0.83200
N767        N  0.46633813  0.32284422  0.97115856    -0.79300
C768        C  0.44059583  0.46411547  0.75976753     0.80700
N769        N  0.43101673  0.48387572  0.77057434    -0.77600
C770        C  0.44146867  0.49393724  0.79046556     0.83200
N771        N  0.46183142  0.48375431  0.79963353    -0.77500
C772        C  0.47181876  0.46400252  0.78907770     0.83200
N773        N  0.46099146  0.45435146  0.76920213    -0.79300
C774        C  0.26039092  0.46408963  0.96538684     0.80700
N775        N  0.26966578  0.45608669  0.98659001    -0.77600
C776        C  0.28963137  0.46666603  0.99653880     0.83200
N777        N  0.30031454  0.48528450  0.98481544    -0.77500
C778        C  0.29131497  0.49348057  0.96363715     0.83200
N779        N  0.27143036  0.48267919  0.95414200    -0.79300
N780        N  0.36574583  0.57745464  0.87602424    -0.36100
N781        N  0.39141360  0.61533423  0.85051516    -0.56700
N782        N  0.36670715  0.65135580  0.87999169    -0.36100
N783        N  0.34380551  0.61352263  0.90781153    -0.56700
C784        C  0.38090909  0.56384021  0.86263923     0.27500
C785        C  0.35507734  0.56287266  0.89226160     0.27500
C786        C  0.38371932  0.66490395  0.86918366     0.27500
C787        C  0.35923772  0.66385171  0.89952003     0.27500
C788        C  0.39854422  0.59635895  0.83701017     0.36100
C789        C  0.39833461  0.63536960  0.83873290     0.36100
C790        C  0.33148119  0.59387463  0.91508878     0.36100
C791        C  0.33265150  0.63283283  0.91757046     0.36100
C792        C  0.37945937  0.54015367  0.87021989    -0.21400
C793        C  0.36323355  0.53955215  0.88885696    -0.21400
C794        C  0.38697096  0.68625895  0.88187620    -0.21400
C795        C  0.37160263  0.68553476  0.90109033    -0.21400
C796        C  0.41042407  0.60441568  0.81668387    -0.22500
C797        C  0.41015775  0.62913163  0.81770374    -0.22500
C798        C  0.31254957  0.60073721  0.92980247    -0.22500
C799        C  0.31322818  0.62541457  0.93128524    -0.22500
C800        C  0.39542203  0.57187735  0.84323789    -0.17800
C801        C  0.33763578  0.56975654  0.90960442    -0.17800
C802        C  0.34058597  0.65693716  0.91521782    -0.17800
C803        C  0.39571445  0.65911724  0.84761014    -0.17800
H804        H  0.38899616  0.52479061  0.86301417     0.15100
H805        H  0.35797644  0.52366547  0.89870380     0.15100
H806        H  0.39918989  0.70087526  0.87774793     0.15100
H807        H  0.36962131  0.69949444  0.91459997     0.15100
H808        H  0.41852398  0.59362968  0.80262500     0.13400
H809        H  0.41813908  0.64112121  0.80468751     0.13400
H810        H  0.29958210  0.58916801  0.93855780     0.13400
H811        H  0.30090671  0.63657132  0.94141014     0.13400
H812        H  0.36217182  0.59550240  0.87370522     0.26600
H813        H  0.35953803  0.63528516  0.87350586     0.26600
N814        N  0.56061210  0.38448772  0.86596815    -0.36100
N815        N  0.59852403  0.35485319  0.88754320    -0.56700
N816        N  0.63423667  0.38048736  0.85880579    -0.36100
N817        N  0.59614324  0.40727264  0.83453308    -0.56700
C818        C  0.54707762  0.36829356  0.87809753     0.27500
C819        C  0.54584257  0.39591167  0.85028390     0.27500
C820        C  0.64811083  0.36304652  0.86839433     0.27500
C821        C  0.64680214  0.39028933  0.84050670     0.27500
C822        C  0.57982013  0.34777488  0.90137644     0.36100
C823        C  0.61881749  0.34623057  0.89794890     0.36100
C824        C  0.57670550  0.42090890  0.82922845     0.36100
C825        C  0.61564294  0.41888451  0.82567299     0.36100
C826        C  0.52333699  0.36968740  0.87020883    -0.21400
C827        C  0.52256879  0.38703853  0.85269685    -0.21400
C828        C  0.66983175  0.36191695  0.85612171    -0.21400
C829        C  0.66889944  0.37891537  0.83842143    -0.21400
C830        C  0.58824963  0.33408271  0.92037980    -0.22500
C831        C  0.61294084  0.33310701  0.91820408    -0.22500
C832        C  0.58385128  0.44114564  0.81667913    -0.22500
C833        C  0.60851414  0.43992029  0.81451858    -0.22500
C834        C  0.55519124  0.35290760  0.89675250    -0.17800
C835        C  0.55248469  0.41482028  0.83455527    -0.17800
C836        C  0.63965531  0.41024709  0.82662235    -0.17800
C837        C  0.64247969  0.34924276  0.88889830    -0.17800
H838        H  0.50808560  0.35926411  0.87641960     0.15100
H839        H  0.50661671  0.39254546  0.84291551     0.15100
H840        H  0.68499852  0.35026587  0.85958029     0.15100
H841        H  0.68311083  0.38271235  0.82570510     0.15100
H842        H  0.57771864  0.32564118  0.93434477     0.13400
H843        H  0.62514442  0.32368759  0.93007959     0.13400
H844        H  0.57248188  0.45534521  0.80985045     0.13400
H845        H  0.61987613  0.45300446  0.80569259     0.13400
H846        H  0.57861913  0.38838905  0.86910044     0.26600
H847        H  0.61791863  0.38647453  0.86545411     0.26600
N848        N  0.36337295  0.38042026  0.67612787    -0.36100
N849        N  0.34193674  0.34754846  0.64122188    -0.56700
N850        N  0.36774922  0.37287889  0.60308186    -0.36100
N851        N  0.39171852  0.40339607  0.63798252    -0.56700
C852        C  0.35388486  0.36352489  0.69086048     0.27500
C853        C  0.37959858  0.39335697  0.68918705     0.27500
C854        C  0.35879338  0.35369750  0.59103787     0.27500
C855        C  0.38567629  0.38202132  0.58951522     0.27500
C856        C  0.32895061  0.34120472  0.66070793     0.36100
C857        C  0.33018537  0.33850545  0.62180251     0.36100
C858        C  0.39700081  0.41853499  0.65637999     0.36100
C859        C  0.39965900  0.41401312  0.61766473     0.36100
C860        C  0.36399571  0.36598821  0.71360736    -0.21400
C861        C  0.38016446  0.38477595  0.71257013    -0.21400
C862        C  0.37113472  0.35054195  0.56959961    -0.21400
C863        C  0.38813684  0.36845125  0.56863772    -0.21400
C864        C  0.30904361  0.32767347  0.65369306    -0.22500
C865        C  0.30975069  0.32607152  0.62897237    -0.22500
C866        C  0.40866281  0.43881778  0.64774374    -0.22500
C867        C  0.41033246  0.43594474  0.62316226    -0.22500
C868        C  0.33550428  0.34669877  0.68474005    -0.17800
C869        C  0.39324559  0.41330464  0.68096475    -0.17800
C870        C  0.39851864  0.40337817  0.59450579    -0.17800
C871        C  0.33851425  0.34016708  0.59788116    -0.17800
H872        H  0.36008436  0.35538658  0.72937842     0.15100
H873        H  0.39107769  0.39137585  0.72743031     0.15100
H874        H  0.36794111  0.33697845  0.55586602     0.15100
H875        H  0.40056752  0.37139868  0.55399190     0.15100
H876        H  0.29545848  0.31981810  0.66517396     0.13400
H877        H  0.29687099  0.31662804  0.61760804     0.13400
H878        H  0.41554284  0.45392652  0.65811645     0.13400
H879        H  0.41869387  0.44838057  0.61081411     0.13400
H880        H  0.35820025  0.38384271  0.65853628     0.26600
H881        H  0.36064453  0.38031853  0.61865762     0.26600
N882        N  0.37304738  0.39063104  0.07702447    -0.36100
N883        N  0.34799922  0.41316472  0.11779189    -0.56700
N884        N  0.37561738  0.38344176  0.15092962    -0.36100
N885        N  0.39794282  0.35832913  0.10996692    -0.56700
C886        C  0.35680897  0.40415741  0.06495217     0.27500
C887        C  0.38388803  0.37592682  0.06084601     0.27500
C888        C  0.35981732  0.39352100  0.16643125     0.27500
C889        C  0.38584234  0.36466934  0.16231657     0.27500
C890        C  0.33856857  0.42655179  0.09987388     0.36100
C891        C  0.34054635  0.42309850  0.13874189     0.36100
C892        C  0.40871987  0.35127584  0.08930134     0.36100
C893        C  0.40964127  0.34725862  0.12817426     0.36100
C894        C  0.35774005  0.39827411  0.04064858    -0.21400
C895        C  0.37476303  0.38056466  0.03807664    -0.21400
C896        C  0.36036559  0.38127780  0.18807158    -0.21400
C897        C  0.37669302  0.36303913  0.18545235    -0.21400
C898        C  0.32479469  0.44497025  0.10950508    -0.22500
C899        C  0.32608970  0.44282126  0.13409778    -0.22500
C900        C  0.42713848  0.33529578  0.09441258    -0.22500
C901        C  0.42774562  0.33278218  0.11898814    -0.22500
C902        C  0.34132951  0.42193038  0.07492518    -0.17800
C903        C  0.40193023  0.35854260  0.06579865    -0.17800
C904        C  0.40379704  0.34934301  0.15292389    -0.17800
C905        C  0.34521288  0.41375032  0.16195197    -0.17800
H906        H  0.34719324  0.40587618  0.02616210     0.15100
H907        H  0.37968111  0.37194968  0.02129296     0.15100
H908        H  0.34998829  0.38498136  0.20410454     0.15100
H909        H  0.38126739  0.35001943  0.19909808     0.15100
H910        H  0.31473416  0.45847408  0.09982188     0.13400
H911        H  0.31709333  0.45425128  0.14705854     0.13400
H912        H  0.43896157  0.32639176  0.08176856     0.13400
H913        H  0.44010867  0.32153853  0.12893138     0.13400
H914        H  0.37692753  0.39181722  0.09515202     0.26600
H915        H  0.38002298  0.38964541  0.13401616     0.26600
N916        N  0.36854405  0.18968827  0.87902728    -0.36100
N917        N  0.34134892  0.15136501  0.85528521    -0.56700
N918        N  0.37032307  0.11605621  0.88169071    -0.36100
N919        N  0.39471527  0.15444356  0.90799986    -0.56700
C920        C  0.35149688  0.20273093  0.86753095     0.27500
C921        C  0.37923815  0.20429681  0.89553108     0.27500
C922        C  0.35276371  0.10191714  0.87227388     0.27500
C923        C  0.38083027  0.10353881  0.89965216     0.27500
C924        C  0.33348988  0.17008611  0.84196766     0.36100
C925        C  0.33428611  0.13102972  0.84368021     0.36100
C926        C  0.40695212  0.17452901  0.91455522     0.36100
C927        C  0.40793714  0.13560826  0.91567443     0.36100
C928        C  0.35152088  0.22598379  0.87674907    -0.21400
C929        C  0.36898286  0.22696806  0.89437642    -0.21400
C930        C  0.35218797  0.08013315  0.88430681    -0.21400
C931        C  0.36987721  0.08118481  0.90162161    -0.21400
C932        C  0.32096487  0.16158142  0.82198253    -0.22500
C933        C  0.32149207  0.13683120  0.82305351    -0.22500
C934        C  0.42786895  0.16845349  0.92680502    -0.22500
C935        C  0.42857343  0.14377335  0.92738414    -0.22500
C936        C  0.33677928  0.19470613  0.84809015    -0.17800
C937        C  0.39899894  0.19828218  0.91056469    -0.17800
C938        C  0.40083628  0.11122280  0.91351646    -0.17800
C939        C  0.33831383  0.10737435  0.85208591    -0.17800
H940        H  0.34028199  0.24082735  0.87119799     0.15100
H941        H  0.37377585  0.24272793  0.90492903     0.15100
H942        H  0.34035010  0.06494765  0.88086576     0.15100
H943        H  0.37426375  0.06702201  0.91413867     0.15100
H944        H  0.31234316  0.17210542  0.80810526     0.13400
H945        H  0.31329960  0.12452111  0.81020454     0.13400
H946        H  0.44122281  0.18053801  0.93451933     0.13400
H947        H  0.44257357  0.13309026  0.93565525     0.13400
H948        H  0.37362301  0.17227400  0.87486608     0.26600
H949        H  0.37584952  0.13258662  0.87513414     0.26600
N950        N  0.17604382  0.38503661  0.88272189    -0.36100
N951        N  0.13971674  0.35502661  0.85880824    -0.56700
N952        N  0.10185772  0.38119269  0.88473286    -0.36100
N953        N  0.13823463  0.40819475  0.91164102    -0.56700
C954        C  0.19050924  0.36941507  0.87083969     0.27500
C955        C  0.18978607  0.39677989  0.89928089     0.27500
C956        C  0.08856307  0.36358757  0.87426416     0.27500
C957        C  0.08771433  0.39207565  0.90122560     0.27500
C958        C  0.15917919  0.34794927  0.84605140     0.36100
C959        C  0.12010827  0.34570512  0.84750377     0.36100
C960        C  0.15751427  0.42086638  0.91979122     0.36100
C961        C  0.11836451  0.41962440  0.91981290     0.36100
C962        C  0.21387262  0.37165935  0.87962239    -0.21400
C963        C  0.21341028  0.38879856  0.89755411    -0.21400
C964        C  0.06557898  0.36344854  0.88405419    -0.21400
C965        C  0.06505042  0.38142064  0.90105962    -0.21400
C966        C  0.15190657  0.33369289  0.82674737    -0.22500
C967        C  0.12717182  0.33226727  0.82767078    -0.22500
C968        C  0.14984471  0.44023907  0.93357301    -0.22500
C969        C  0.12507451  0.43949515  0.93352306    -0.22500
C970        C  0.18348753  0.35342802  0.85200273    -0.17800
C971        C  0.18198185  0.41500047  0.91550424    -0.17800
C972        C  0.09425133  0.41197698  0.91579008    -0.17800
C973        C  0.09594295  0.34855179  0.85512343    -0.17800
H974        H  0.22964994  0.36182486  0.87386403     0.15100
H975        H  0.22880512  0.39464924  0.90816157     0.15100
H976        H  0.05061616  0.35174853  0.87930205     0.15100
H977        H  0.04965560  0.38616597  0.91197878     0.15100
H978        H  0.16323013  0.32518369  0.81339259     0.13400
H979        H  0.11570790  0.32242649  0.81518478     0.13400
H980        H  0.16092552  0.45362355  0.94262020     0.13400
H981        H  0.11337103  0.45212793  0.94259920     0.13400
H982        H  0.15804377  0.38818927  0.87912504     0.26600
H983        H  0.11906732  0.38638078  0.87988220     0.26600
C984        C  0.69132430  0.73339762  0.20290616     0.80700
N985        N  0.71210933  0.72411947  0.19392133    -0.77600
C986        C  0.72232852  0.70425353  0.20374559     0.83200
N987        N  0.71138356  0.69365205  0.22274857    -0.77500
C988        C  0.69068035  0.70267118  0.23205541     0.83200
N989        N  0.68076414  0.72258377  0.22205415    -0.79300
N990        N  0.61255894  0.62269354  0.31751022    -0.36100
N991        N  0.63628703  0.65227671  0.35396019    -0.56700
N992        N  0.61141174  0.62505813  0.39076518    -0.36100
N993        N  0.58545102  0.59759169  0.35442297    -0.56700
C994        C  0.62179340  0.64062172  0.30399260     0.27500
C995        C  0.59520223  0.61162769  0.30423174     0.27500
C996        C  0.62051870  0.64357885  0.40374540     0.27500
C997        C  0.59355153  0.61532712  0.40395146     0.27500
C998        C  0.64910354  0.65908050  0.33458567     0.36100
C999        C  0.64882992  0.65980794  0.37349922     0.36100
C1000       C  0.57955630  0.58370846  0.33526256     0.36100
C1001       C  0.57871341  0.58532718  0.37416280     0.36100
C1002       C  0.61021386  0.64093100  0.28182829    -0.21400
C1003       C  0.59347820  0.62258105  0.28194324    -0.21400
C1004       C  0.60842696  0.64554893  0.42546057    -0.21400
C1005       C  0.59130424  0.62774436  0.42553945    -0.21400
C1006       C  0.66981142  0.67126838  0.34181707    -0.22500
C1007       C  0.66962090  0.67174476  0.36657674    -0.22500
C1008       C  0.56877242  0.56254087  0.34281670    -0.22500
C1009       C  0.56821256  0.56359032  0.36756915    -0.22500
C1010       C  0.64144514  0.65565298  0.31055437    -0.17800
C1011       C  0.58206724  0.59094175  0.31113850    -0.17800
C1012       C  0.58046665  0.59445815  0.39784080    -0.17800
C1013       C  0.64064503  0.65752321  0.39732387    -0.17800
H1014       H  0.61365392  0.65297477  0.26701312     0.15100
H1015       H  0.58156488  0.61774177  0.26718529     0.15100
H1016       H  0.61177402  0.65824578  0.43995013     0.15100
H1017       H  0.57891833  0.62408303  0.44006185     0.15100
H1018       H  0.68346037  0.67918774  0.33045513     0.13400
H1019       H  0.68303081  0.68015312  0.37813657     0.13400
H1020       H  0.56171762  0.54807581  0.33166431     0.13400
H1021       H  0.56070500  0.55009329  0.37933767     0.13400
H1022       H  0.61888793  0.61723388  0.33419730     0.26600
H1023       H  0.61820248  0.61837503  0.37469467     0.26600
C1024       C  0.69914959  0.52215166  0.04368600     0.80700
N1025       N  0.71982480  0.53190976  0.05285356    -0.77600
C1026       C  0.73012470  0.55162063  0.04265796     0.83200
N1027       N  0.71915618  0.56176948  0.02319154    -0.77500
C1028       C  0.69840202  0.55226211  0.01376143     0.83200
N1029       N  0.68865102  0.53250346  0.02423864    -0.79300
C1030       C  0.50878637  0.70772774  0.04225310     0.80700
N1031       N  0.51755883  0.72835196  0.05233748    -0.77600
C1032       C  0.53709591  0.73960744  0.04286027     0.83200
N1033       N  0.54799987  0.72986352  0.02326366    -0.77500
C1034       C  0.53962238  0.70914157  0.01306904     0.83200
N1035       N  0.52001613  0.69813763  0.02275238    -0.79300
C1036       C  0.54168223  0.51214669  0.19799454     0.80700
N1037       N  0.52382056  0.52390645  0.18611237    -0.77600
C1038       C  0.51432057  0.54452344  0.19519736     0.83200
N1039       N  0.52286942  0.55330826  0.21649424    -0.77500
C1040       C  0.54076624  0.54187845  0.22861173     0.83200
N1041       N  0.55003997  0.52132263  0.21919493    -0.79300
N1042       N  0.42618129  0.62487074  0.11803746    -0.36100
N1043       N  0.38753909  0.65505929  0.09909905    -0.56700
N1044       N  0.35303442  0.62569226  0.12482338    -0.36100
N1045       N  0.39177329  0.59785219  0.14615044    -0.56700
C1046       C  0.43850631  0.64359478  0.10869135     0.27500
C1047       C  0.44080708  0.61439840  0.13445167     0.27500
C1048       C  0.33906509  0.64434622  0.11818662     0.27500
C1049       C  0.34127383  0.61420999  0.14257127     0.27500
C1050       C  0.40570966  0.66195286  0.08456489     0.36100
C1051       C  0.36688380  0.66284972  0.08882145     0.36100
C1052       C  0.41170875  0.58484848  0.15081240     0.36100
C1053       C  0.37281298  0.58460933  0.15354383     0.36100
C1054       C  0.46118748  0.64505698  0.11927181    -0.21400
C1055       C  0.46265160  0.62659599  0.13551349    -0.21400
C1056       C  0.31819358  0.64471601  0.13181530    -0.21400
C1057       C  0.31955161  0.62563551  0.14719231    -0.21400
C1058       C  0.39657672  0.67439587  0.06502511    -0.22500
C1059       C  0.37191512  0.67504620  0.06778877    -0.22500
C1060       C  0.40544372  0.56324761  0.16144365    -0.22500
C1061       C  0.38068151  0.56307669  0.16313723    -0.22500
C1062       C  0.43043619  0.65834189  0.08969032    -0.17800
C1063       C  0.43543915  0.59336271  0.14751022    -0.17800
C1064       C  0.34881527  0.59279813  0.15361821    -0.17800
C1065       C  0.34374179  0.65988361  0.09889423    -0.17800
H1066       H  0.47529910  0.65799090  0.11552453     0.15100
H1067       H  0.47811591  0.62251795  0.14670060     0.15100
H1068       H  0.30333854  0.65721480  0.13054712     0.15100
H1069       H  0.30590419  0.62059318  0.16008517     0.15100
H1070       H  0.40661858  0.68230050  0.05040900     0.13400
H1071       H  0.35916517  0.68350064  0.05574419     0.13400
H1072       H  0.41747049  0.54932247  0.16769964     0.13400
H1073       H  0.36976860  0.54900926  0.17098274     0.13400
H1074       H  0.40939203  0.61867849  0.11227794     0.26600
H1075       H  0.36880679  0.62008140  0.11656598     0.26600
N1076       N  0.62082346  0.43060312  0.12060954    -0.36100
N1077       N  0.59372368  0.38968487  0.14088802    -0.56700
N1078       N  0.62464233  0.35689743  0.11467544    -0.36100
N1079       N  0.64877604  0.39787900  0.09144558    -0.56700
C1080       C  0.60319909  0.44243588  0.13239956     0.27500
C1081       C  0.63222861  0.44669223  0.10635933     0.27500
C1082       C  0.60779201  0.34137256  0.12283990     0.27500
C1083       C  0.63630976  0.34565257  0.09660895     0.27500
C1084       C  0.58424142  0.40769559  0.15420498     0.36100
C1085       C  0.58634434  0.36884141  0.15095036     0.36100
C1086       C  0.66016639  0.41849954  0.08541570     0.36100
C1087       C  0.66199873  0.37972683  0.08227532     0.36100
C1088       C  0.60371202  0.46651035  0.12587825    -0.21400
C1089       C  0.62194473  0.46915637  0.10945666    -0.21400
C1090       C  0.60902632  0.31991302  0.11005687    -0.21400
C1091       C  0.62697428  0.32263074  0.09345675    -0.21400
C1092       C  0.57036850  0.39823605  0.17258268    -0.22500
C1093       C  0.57176820  0.37361851  0.17056608    -0.22500
C1094       C  0.68056153  0.41342826  0.07203732    -0.22500
C1095       C  0.68177987  0.38886928  0.07012012    -0.22500
C1096       C  0.58728824  0.43255515  0.14968128    -0.17800
C1097       C  0.65199572  0.44190896  0.09100864    -0.17800
C1098       C  0.65577464  0.35508146  0.08339777    -0.17800
C1099       C  0.59182812  0.34559147  0.14205137    -0.17800
H1100       H  0.59218390  0.48080677  0.13230851     0.15100
H1101       H  0.62706201  0.48579163  0.10083715     0.15100
H1102       H  0.59804871  0.30395583  0.11235297     0.15100
H1103       H  0.63251225  0.30912446  0.08052426     0.15100
H1104       H  0.56031159  0.40804886  0.18606602     0.13400
H1105       H  0.56299933  0.36073628  0.18215712     0.13400
H1106       H  0.69324838  0.42608538  0.06443817     0.13400
H1107       H  0.69558197  0.37891195  0.06067966     0.13400
H1108       H  0.62532040  0.41278478  0.12302852     0.26600
H1109       H  0.62886642  0.37366331  0.12180853     0.26600
N1110       N  0.61928438  0.63182545  0.92712674    -0.36100
N1111       N  0.64374226  0.60324866  0.89064575    -0.56700
N1112       N  0.61981244  0.63164172  0.85324769    -0.36100
N1113       N  0.59289753  0.65766969  0.88967077    -0.56700
C1114       C  0.62936791  0.61459272  0.94097930     0.27500
C1115       C  0.60202678  0.64272490  0.94038379     0.27500
C1116       C  0.62935411  0.61364715  0.83998385     0.27500
C1117       C  0.60287130  0.64232579  0.83942843     0.27500
C1118       C  0.65618356  0.59588950  0.91024875     0.36100
C1119       C  0.65599268  0.59535943  0.87116010     0.36100
C1120       C  0.58534134  0.67020628  0.90910574     0.36100
C1121       C  0.58593361  0.67021876  0.87011738     0.36100
C1122       C  0.61851923  0.61471356  0.96340976    -0.21400
C1123       C  0.60124909  0.63238554  0.96301151    -0.21400
C1124       C  0.61849262  0.61302816  0.81742446    -0.21400
C1125       C  0.60180371  0.63114242  0.81707278    -0.21400
C1126       C  0.67622694  0.58287302  0.90316607    -0.22500
C1127       C  0.67611820  0.58256218  0.87839370    -0.22500
C1128       C  0.57326446  0.69071965  0.90187597    -0.22500
C1129       C  0.57366729  0.69074322  0.87714924    -0.22500
C1130       C  0.64897077  0.59968663  0.93439862    -0.17800
C1131       C  0.58787875  0.66261622  0.93320010    -0.17800
C1132       C  0.58896588  0.66247645  0.84603653    -0.17800
C1133       C  0.64868098  0.59874664  0.84697600    -0.17800
H1134       H  0.62268721  0.60337125  0.97859490     0.15100
H1135       H  0.58961135  0.63722724  0.97783556     0.15100
H1136       H  0.62233292  0.60089048  0.80263452     0.15100
H1137       H  0.59027254  0.63562350  0.80200111     0.15100
H1138       H  0.68947374  0.57438792  0.91463788     0.13400
H1139       H  0.68928333  0.57384280  0.86701579     0.13400
H1140       H  0.56480722  0.70411175  0.91322070     0.13400
H1141       H  0.56558448  0.70415262  0.86566230     0.13400
H1142       H  0.62487691  0.63686185  0.91013578     0.26600
H1143       H  0.62558700  0.63719040  0.87017268     0.26600
N1144       N  0.81363669  0.63115856  0.12459578    -0.36100
N1145       N  0.85257943  0.60662728  0.09996960    -0.56700
N1146       N  0.88753929  0.63592390  0.12762626    -0.36100
N1147       N  0.84880509  0.65775199  0.15467292    -0.56700
C1148       C  0.80093335  0.61404463  0.11241139     0.27500
C1149       C  0.79890692  0.64070404  0.14146754     0.27500
C1150       C  0.90220269  0.61951849  0.11740037     0.27500
C1151       C  0.90018559  0.64652216  0.14570171     0.27500
C1152       C  0.83396481  0.59834722  0.08635040     0.36100
C1153       C  0.87306008  0.60079283  0.08823901     0.36100
C1154       C  0.82833392  0.66856723  0.16203251     0.36100
C1155       C  0.86738045  0.67115265  0.16336736     0.36100
C1156       C  0.77772344  0.61290067  0.12153808    -0.21400
C1157       C  0.77643962  0.62968614  0.13980964    -0.21400
C1158       C  0.92448450  0.61992273  0.12894404    -0.21400
C1159       C  0.92315419  0.63685587  0.14685677    -0.21400
C1160       C  0.84269309  0.58684904  0.06599744    -0.22500
C1161       C  0.86747207  0.58838245  0.06720352    -0.22500
C1162       C  0.83394540  0.68872840  0.17584810    -0.22500
C1163       C  0.85867567  0.69043875  0.17656793    -0.22500
C1164       C  0.80927547  0.60018943  0.09257246    -0.17800
C1165       C  0.80466116  0.65997109  0.15743394    -0.17800
C1166       C  0.89206665  0.66544254  0.16055051    -0.17800
C1167       C  0.89670911  0.60528849  0.09696751    -0.17800
H1168       H  0.76312978  0.60128433  0.11555955     0.15100
H1169       H  0.76063870  0.63346426  0.15052005     0.15100
H1170       H  0.94025237  0.60929966  0.12484462     0.15100
H1171       H  0.93757625  0.64158954  0.15923417     0.15100
H1172       H  0.83230409  0.57818670  0.05182465     0.13400
H1173       H  0.87994788  0.58106646  0.05417887     0.13400
H1174       H  0.82152520  0.70092087  0.18456155     0.13400
H1175       H  0.86904261  0.70418474  0.18590960     0.13400
H1176       H  0.83092227  0.63700341  0.12078336     0.26600
H1177       H  0.87050167  0.64061026  0.12158960     0.26600
N1178       N  0.61661235  0.82332079  0.12370431    -0.36100
N1179       N  0.64769977  0.85834767  0.14822731    -0.56700
N1180       N  0.62324583  0.89648120  0.12227240    -0.36100
N1181       N  0.59487357  0.86151764  0.09494634    -0.56700
C1182       C  0.63283690  0.80862150  0.13436938     0.27500
C1183       C  0.60500564  0.81031165  0.10645482     0.27500
C1184       C  0.64184272  0.90874290  0.13230971     0.27500
C1185       C  0.61432495  0.91036211  0.10454195     0.27500
C1186       C  0.65358780  0.83865639  0.16102797     0.36100
C1187       C  0.65668817  0.87752187  0.16044898     0.36100
C1188       C  0.58039234  0.84303565  0.08819989     0.36100
C1189       C  0.58385004  0.88189972  0.08774111     0.36100
C1190       C  0.63137892  0.78595350  0.12387113    -0.21400
C1191       C  0.61389494  0.78702352  0.10627562    -0.21400
C1192       C  0.64471233  0.93066008  0.12087742    -0.21400
C1193       C  0.62737580  0.93165069  0.10330019    -0.21400
C1194       C  0.66674263  0.84534567  0.18131825    -0.22500
C1195       C  0.66871987  0.87001099  0.18092867    -0.22500
C1196       C  0.56018659  0.85170945  0.07633673    -0.22500
C1197       C  0.56238651  0.87637877  0.07605795    -0.22500
C1198       C  0.64821126  0.81469473  0.15401569    -0.17800
C1199       C  0.58576005  0.81843759  0.09168232    -0.17800
C1200       C  0.59356718  0.90527761  0.09070091    -0.17800
C1201       C  0.65518701  0.90156046  0.15262283    -0.17800
H1202       H  0.64182001  0.77021637  0.12842755     0.15100
H1203       H  0.60830021  0.77224749  0.09472297     0.15100
H1204       H  0.65773350  0.94467950  0.12496612     0.15100
H1205       H  0.62446277  0.94655731  0.09122975     0.15100
H1206       H  0.67423223  0.83368068  0.19491914     0.13400
H1207       H  0.67807578  0.88111950  0.19408219     0.13400
H1208       H  0.54541384  0.84135620  0.06868989     0.13400
H1209       H  0.54972076  0.88880671  0.06811313     0.13400
H1210       H  0.61267933  0.84080927  0.12884143     0.26600
H1211       H  0.61591881  0.88047502  0.12836937     0.26600
O1212       O  0.72405418  0.49063999  0.68419872    -0.78000
C1213       C  0.76903139  0.55770840  0.69700427     0.83000
O1214       O  0.78163910  0.46850676  0.73966334    -0.79100
O1215       O  0.77163987  0.54793617  0.76897203    -0.80600
O1216       O  0.68788021  0.53269804  0.75759346    -0.80400
O1217       O  0.68997633  0.49644106  0.70424411    -0.79000
Zn1218     Zn  0.74957381  0.50726197  0.70380312     1.55700
O1219       O  0.71637389  0.56089471  0.76144682    -0.80400
Cd1220     Cd  0.70462492  0.50627257  0.73725433     1.59700
Cd1221     Cd  0.75741866  0.49003519  0.75953220     1.59600
O1222       O  0.69817557  0.47652174  0.75701897    -0.80400
O1223       O  0.73981355  0.51179835  0.73622289    -1.90900
Cd1224     Cd  0.74527813  0.54605906  0.74399381     1.59900
O1225       O  0.73192714  0.46790918  0.77720752    -0.80400
O1226       O  0.76011741  0.56569600  0.71651698    -0.79000
C1227       C  0.78684964  0.47017767  0.71734237     0.83500
C1228       C  0.70151487  0.48712898  0.68671814     0.83200
O1229       O  0.76456952  0.53644674  0.68957714    -0.78000
C1230       C  0.69578537  0.55229493  0.76682958     0.84000
O1231       O  0.77610317  0.48460548  0.70350102    -0.78100
C1232       C  0.70947451  0.46443240  0.77267427     0.84100
C1233       C  0.78207221  0.53403079  0.78362574     0.84400
O1234       O  0.77782592  0.51137786  0.78409554    -0.80500
O1235       O  0.93582078  0.01746916  0.47313072    -0.78000
C1236       C  0.94092603  0.95402046  0.52578726     0.83000
O1237       O  0.98559271  0.04222319  0.53746090    -0.79100
O1238       O  0.01313381  0.96097020  0.53590812    -0.80600
O1239       O  0.00617215  0.96702471  0.44851209    -0.80400
O1240       O  0.96464253  0.01524150  0.44556633    -0.79000
Zn1241     Zn  0.95171135  0.00243279  0.50248194     1.55700
O1242       O  0.01166622  0.94476293  0.48107503    -0.80400
Cd1243     Cd  0.99179935  0.99774826  0.46357011     1.59700
Cd1244     Cd  0.00742344  0.01816727  0.51769087     1.59600
O1245       O  0.01930356  0.02086519  0.45892342    -0.80400
O1246       O  0.98542956  0.99579172  0.49832960    -1.90900
Cd1247     Cd  0.99117196  0.96194484  0.50683357     1.59900
O1248       O  0.02971654  0.03786337  0.49392111    -0.80400
O1249       O  0.96071019  0.94471548  0.51889227    -0.79000
C1250       C  0.96256199  0.04362221  0.53729900     0.83500
C1251       C  0.94448961  0.02341899  0.45278942     0.83200
O1252       O  0.93479301  0.97519417  0.51958991    -0.78000
C1253       C  0.01644887  0.94965323  0.45925099     0.84000
O1254       O  0.94947243  0.02925183  0.52515386    -0.78100
C1255       C  0.03202688  0.03552245  0.47111057     0.84100
C1256       C  0.02754633  0.97522269  0.54667142     0.84400
O1257       O  0.02896629  0.99758414  0.54145949    -0.80500
C1258       C  0.54016895  0.05342855  0.73872852     0.80700
N1259       N  0.55065451  0.03403581  0.72810981    -0.77600
C1260       C  0.54132548  0.02417216  0.70761789     0.83200
N1261       N  0.52129515  0.03414763  0.69762236    -0.77500
C1262       C  0.51039509  0.05345957  0.70803558     0.83200
N1263       N  0.52001776  0.06294850  0.72858292    -0.79300
C1264       C  0.72746165  0.05375105  0.54852296     0.80700
N1265       N  0.71673510  0.06300969  0.52862578    -0.77600
C1266       C  0.69676185  0.05259713  0.51879449     0.83200
N1267       N  0.68752728  0.03252893  0.52912483    -0.77500
C1268       C  0.69784664  0.02290339  0.54910208     0.83200
N1269       N  0.71778346  0.03375859  0.55881716    -0.79300
C1270       C  0.53554535  0.23628174  0.54380083     0.80700
N1271       N  0.54519173  0.22590000  0.52386879    -0.77600
C1272       C  0.53526707  0.20572881  0.51393402     0.83200
N1273       N  0.51531014  0.19597840  0.52420956    -0.77500
C1274       C  0.50535722  0.20602401  0.54420212     0.83200
N1275       N  0.51571251  0.22612760  0.55392951    -0.79300
N1276       N  0.61477366  0.12477847  0.43015532    -0.36100
N1277       N  0.64244747  0.09855069  0.39396920    -0.56700
N1278       N  0.61662487  0.12458522  0.35683405    -0.36100
N1279       N  0.58660383  0.14824810  0.39262868    -0.56700
C1280       C  0.62557981  0.10793407  0.44392247     0.27500
C1281       C  0.59670544  0.13450144  0.44325861     0.27500
C1282       C  0.62821613  0.10793786  0.34348212     0.27500
C1283       C  0.59903406  0.13375056  0.34281291     0.27500
C1284       C  0.65486478  0.09204276  0.41382314     0.36100
C1285       C  0.65613679  0.09246789  0.37483851     0.36100
C1286       C  0.57856261  0.16075892  0.41187087     0.36100
C1287       C  0.57950521  0.16046129  0.37290956     0.36100
C1288       C  0.61426787  0.10701436  0.46610917    -0.21400
C1289       C  0.59609423  0.12379982  0.46570210    -0.21400
C1290       C  0.61788945  0.10657312  0.32070433    -0.21400
C1291       C  0.59945174  0.12284804  0.32030219    -0.21400
C1292       C  0.67645480  0.08139015  0.40726973    -0.22500
C1293       C  0.67726073  0.08167854  0.38250705    -0.22500
C1294       C  0.56583895  0.18077480  0.40432460    -0.22500
C1295       C  0.56642383  0.18056305  0.37958064    -0.22500
C1296       C  0.64635622  0.09454600  0.43765543    -0.17800
C1297       C  0.58174132  0.15378232  0.43608214    -0.17800
C1298       C  0.58399145  0.15312638  0.34899503    -0.17800
C1299       C  0.64899533  0.09529049  0.35060082    -0.17800
H1300       H  0.61881558  0.09562612  0.48115926     0.15100
H1301       H  0.58392790  0.12780726  0.48034601     0.15100
H1302       H  0.62331881  0.09537395  0.30570048     0.15100
H1303       H  0.58797238  0.12656290  0.30497829     0.15100
H1304       H  0.69010904  0.07406294  0.41907848     0.13400
H1305       H  0.69160442  0.07459405  0.37142352     0.13400
H1306       H  0.55700416  0.19408579  0.41547043     0.13400
H1307       H  0.55814729  0.19364241  0.36785330     0.13400
H1308       H  0.62045192  0.13049530  0.41340916     0.26600
H1309       H  0.62164074  0.13069571  0.37380253     0.26600
N1310       N  0.42196598  0.12935482  0.62697294    -0.36100
N1311       N  0.38643585  0.10414000  0.65584573    -0.56700
N1312       N  0.34780796  0.12735619  0.62834931    -0.36100
N1313       N  0.38332602  0.15512035  0.60186754    -0.56700
C1314       C  0.43656245  0.11930171  0.64369745     0.27500
C1315       C  0.43498885  0.14626950  0.61536482     0.27500
C1316       C  0.33503304  0.11706795  0.64619263     0.27500
C1317       C  0.33331879  0.14373353  0.61779507     0.27500
C1318       C  0.40641854  0.09224354  0.66299591     0.36100
C1319       C  0.36732440  0.09125365  0.66362604     0.36100
C1320       C  0.40240515  0.16311753  0.58909165     0.36100
C1321       C  0.36324848  0.16189490  0.58978849     0.36100
C1322       C  0.45924361  0.12982546  0.64254201    -0.21400
C1323       C  0.45826855  0.14678990  0.62467442    -0.21400
C1324       C  0.31211830  0.12689636  0.64693996    -0.21400
C1325       C  0.31093366  0.14350498  0.62890264    -0.21400
C1326       C  0.39997863  0.07184501  0.67565596    -0.22500
C1327       C  0.37520429  0.07116730  0.67598124    -0.22500
C1328       C  0.39440898  0.17547139  0.56902598    -0.22500
C1329       C  0.36963022  0.17475107  0.56949246    -0.22500
C1330       C  0.43039247  0.10007444  0.65914013    -0.17800
C1331       C  0.42693093  0.16037928  0.59577161    -0.17800
C1332       C  0.33926620  0.15778433  0.59753932    -0.17800
C1333       C  0.34290378  0.09811641  0.66099373    -0.17800
H1334       H  0.47496054  0.12558217  0.65330766     0.15100
H1335       H  0.47311975  0.15809968  0.61906940     0.15100
H1336       H  0.29756613  0.12235438  0.65901685     0.15100
H1337       H  0.29513842  0.15393560  0.62451660     0.15100
H1338       H  0.41188069  0.05882421  0.68381372     0.13400
H1339       H  0.36424630  0.05753652  0.68449167     0.13400
H1340       H  0.40528800  0.18426722  0.55555094     0.13400
H1341       H  0.35772515  0.18298990  0.55648641     0.13400
H1342       H  0.40454491  0.12404638  0.62273422     0.26600
H1343       H  0.36486763  0.12237330  0.62275983     0.26600
C1344       C  0.70011983  0.21066202  0.72996927     0.80700
N1345       N  0.72046178  0.20107709  0.72015165    -0.77600
C1346       C  0.73115448  0.21153648  0.70076601     0.83200
N1347       N  0.72116894  0.23165697  0.69125388    -0.77500
C1348       C  0.70090663  0.24147534  0.70069516     0.83200
N1349       N  0.69056560  0.23078084  0.71997841    -0.79300
N1350       N  0.61897458  0.32355006  0.62137588    -0.36100
N1351       N  0.64995300  0.36188011  0.64075328    -0.56700
N1352       N  0.62172340  0.39671925  0.61380401    -0.36100
N1353       N  0.59325020  0.35848048  0.59186576    -0.56700
C1354       C  0.63607806  0.31039742  0.63269663     0.27500
C1355       C  0.60656023  0.30854292  0.60642469     0.27500
C1356       C  0.64131639  0.40976284  0.62026372     0.27500
C1357       C  0.61147038  0.40813389  0.59502991     0.27500
C1358       C  0.65703136  0.34370480  0.65513904     0.36100
C1359       C  0.65846475  0.38247339  0.65083438     0.36100
C1360       C  0.57958128  0.33882386  0.58712003     0.36100
C1361       C  0.58068746  0.37766326  0.58390673     0.36100
C1362       C  0.63415901  0.28660532  0.62516773    -0.21400
C1363       C  0.61570223  0.28547524  0.60853720    -0.21400
C1364       C  0.64364265  0.42952431  0.60537428    -0.21400
C1365       C  0.62475170  0.42848701  0.58938755    -0.21400
C1366       C  0.67050384  0.35278162  0.67427762    -0.22500
C1367       C  0.67121370  0.37738757  0.67166471    -0.22500
C1368       C  0.55829312  0.34553779  0.57585476    -0.22500
C1369       C  0.55894588  0.37018059  0.57392721    -0.22500
C1370       C  0.65263334  0.31898688  0.65043444    -0.17800
C1371       C  0.58661884  0.31482019  0.59160241    -0.17800
C1372       C  0.58957138  0.40154178  0.58391704    -0.17800
C1373       C  0.65585156  0.40553918  0.64058509    -0.17800
H1374       H  0.64484168  0.27150737  0.63108865     0.15100
H1375       H  0.60959596  0.26939193  0.59921944     0.15100
H1376       H  0.65735085  0.44343399  0.60621269     0.15100
H1377       H  0.62102497  0.44141207  0.57540139     0.15100
H1378       H  0.67895163  0.34274251  0.68861441     0.13400
H1379       H  0.68031028  0.39002022  0.68355614     0.13400
H1380       H  0.54383412  0.33388674  0.56961771     0.13400
H1381       H  0.54518732  0.38126182  0.56578412     0.13400
H1382       H  0.61529459  0.34153531  0.62451276     0.26600
H1383       H  0.61466557  0.38204522  0.62291640     0.26600
N1384       N  0.61877352  0.93693822  0.62649214    -0.36100
N1385       N  0.64315109  0.89902278  0.59953340    -0.56700
N1386       N  0.61397350  0.86302071  0.62476237    -0.36100
N1387       N  0.59241139  0.90086073  0.65429877    -0.56700
C1388       C  0.63525915  0.95034284  0.61460843     0.27500
C1389       C  0.60793795  0.95142679  0.64281299     0.27500
C1390       C  0.62994961  0.84877409  0.61325462     0.27500
C1391       C  0.60395409  0.84968984  0.64238218     0.27500
C1392       C  0.65274678  0.91817981  0.58811745     0.36100
C1393       C  0.64980337  0.87925593  0.58699024     0.36100
C1394       C  0.58146926  0.92084229  0.66288111     0.36100
C1395       C  0.57991562  0.88174957  0.66272072     0.36100
C1396       C  0.63470113  0.97376002  0.62338647    -0.21400
C1397       C  0.61754854  0.97443335  0.64112971    -0.21400
C1398       C  0.62970556  0.82603285  0.62334887    -0.21400
C1399       C  0.61348293  0.82666308  0.64180397    -0.21400
C1400       C  0.66596021  0.91048024  0.56842428    -0.22500
C1401       C  0.66406734  0.88582220  0.56769232    -0.22500
C1402       C  0.56205987  0.91434408  0.67711153    -0.22500
C1403       C  0.56107929  0.88962316  0.67700443    -0.22500
C1404       C  0.65021144  0.94249480  0.59544319    -0.17800
C1405       C  0.58900667  0.94487606  0.65862952    -0.17800
C1406       C  0.58593813  0.85728912  0.65861367    -0.17800
C1407       C  0.64437692  0.85529391  0.59346857    -0.17800
H1408       H  0.64544165  0.98891234  0.61754517     0.15100
H1409       H  0.61264127  0.99018414  0.65152343     0.15100
H1410       H  0.64029262  0.81056079  0.61814967     0.15100
H1411       H  0.60929966  0.81177633  0.65352177     0.15100
H1412       H  0.67595094  0.92147019  0.55590890     0.13400
H1413       H  0.67244157  0.87406123  0.55460612     0.13400
H1414       H  0.54985846  0.92616817  0.68660856     0.13400
H1415       H  0.54801034  0.87870301  0.68640409     0.13400
H1416       H  0.61437693  0.91921475  0.62297987     0.26600
H1417       H  0.60938679  0.88040195  0.62007858     0.26600
N1418       N  0.81758407  0.13690353  0.62055437    -0.36100
N1419       N  0.85328815  0.10942815  0.59412392    -0.56700
N1420       N  0.89163729  0.13602771  0.61950575    -0.36100
N1421       N  0.85566522  0.16624755  0.64291797    -0.56700
C1422       C  0.80317708  0.12537507  0.60442077     0.27500
C1423       C  0.80445320  0.15468552  0.63067655     0.27500
C1424       C  0.90442904  0.12430420  0.60246402     0.27500
C1425       C  0.90559293  0.15439181  0.62769300     0.27500
C1426       C  0.83334110  0.09663603  0.58791140     0.36100
C1427       C  0.87250689  0.09600778  0.58766323     0.36100
C1428       C  0.83661605  0.17380724  0.65601985     0.36100
C1429       C  0.87572647  0.17409044  0.65457323     0.36100
C1430       C  0.78060111  0.13603223  0.60426355    -0.21400
C1431       C  0.78138454  0.15447497  0.62087849    -0.21400
C1432       C  0.92680401  0.13523653  0.59992075    -0.21400
C1433       C  0.92753741  0.15421342  0.61584156    -0.21400
C1434       C  0.83990962  0.07512254  0.57713080    -0.22500
C1435       C  0.86471018  0.07468598  0.57703054    -0.22500
C1436       C  0.84459002  0.18683637  0.67589099    -0.22500
C1437       C  0.86937780  0.18700344  0.67498466    -0.22500
C1438       C  0.80929731  0.10451737  0.59105559    -0.17800
C1439       C  0.81212082  0.16988594  0.64978955    -0.17800
C1440       C  0.89963414  0.17054840  0.64645130    -0.17800
C1441       C  0.89694438  0.10339550  0.58984698    -0.17800
H1442       H  0.76502734  0.13079558  0.59359564     0.15100
H1443       H  0.76653815  0.16619003  0.62546630     0.15100
H1444       H  0.94117404  0.13005453  0.58786749     0.15100
H1445       H  0.94257548  0.16645752  0.61843498     0.15100
H1446       H  0.82807861  0.06120424  0.57007096     0.13400
H1447       H  0.87573302  0.06035505  0.56982511     0.13400
H1448       H  0.83368706  0.19536344  0.68958146     0.13400
H1449       H  0.88135111  0.19561788  0.68788602     0.13400
H1450       H  0.83480530  0.13187509  0.62570943     0.26600
H1451       H  0.87494706  0.13090151  0.62613422     0.26600
N1452       N  0.61808674  0.13740315  0.82040680    -0.36100
N1453       N  0.59008738  0.11576735  0.85978002    -0.56700
N1454       N  0.61820565  0.14396228  0.89391128    -0.36100
N1455       N  0.64368955  0.16800791  0.85457463    -0.56700
C1456       C  0.60046617  0.12582608  0.80791692     0.27500
C1457       C  0.62895512  0.15297125  0.80518754     0.27500
C1458       C  0.60175782  0.13418853  0.90883724     0.27500
C1459       C  0.62927135  0.16194776  0.90612646     0.27500
C1460       C  0.58251955  0.10166561  0.84130885     0.36100
C1461       C  0.58338109  0.10462178  0.88027414     0.36100
C1462       C  0.65605552  0.17400750  0.83456752     0.36100
C1463       C  0.65598633  0.17744724  0.87348105     0.36100
C1464       C  0.60024174  0.13404156  0.78439338    -0.21400
C1465       C  0.61824075  0.15105946  0.78265634    -0.21400
C1466       C  0.60242593  0.14607444  0.93084912    -0.21400
C1467       C  0.61979511  0.16358351  0.92915248    -0.21400
C1468       C  0.57053467  0.08165167  0.85010885    -0.22500
C1469       C  0.57109640  0.08352763  0.87480835    -0.22500
C1470       C  0.67601515  0.18787146  0.84075005    -0.22500
C1471       C  0.67598910  0.19002911  0.86541104    -0.22500
C1472       C  0.58557599  0.10698105  0.81662056    -0.17800
C1473       C  0.64894223  0.16808982  0.81074717    -0.17800
C1474       C  0.64899514  0.17561953  0.89786312    -0.17800
C1475       C  0.58743297  0.11373534  0.90379531    -0.17800
H1476       H  0.58846258  0.12820859  0.76987365     0.15100
H1477       H  0.62293308  0.16083990  0.76657102     0.15100
H1478       H  0.59183876  0.14226311  0.94668441     0.15100
H1479       H  0.62512264  0.17579725  0.94348187     0.15100
H1480       H  0.56229107  0.06717853  0.83981225     0.13400
H1481       H  0.56334410  0.07084773  0.88729961     0.13400
H1482       H  0.68914598  0.19572118  0.82875513     0.13400
H1483       H  0.68909940  0.19987959  0.87615070     0.13400
H1484       H  0.62332204  0.13374386  0.83789686     0.26600
H1485       H  0.62291907  0.13760560  0.87705407     0.26600
C1486       C  0.01569877  0.71371930  0.54182618     0.80700
N1487       N  0.02589392  0.73380492  0.55175780    -0.77600
C1488       C  0.04689528  0.74291704  0.54313662     0.83200
N1489       N  0.05776062  0.73153469  0.52449856    -0.77500
C1490       C  0.04801669  0.71145845  0.51428657     0.83200
N1491       N  0.02688462  0.70259604  0.52300969    -0.79300
N1492       N  0.12774257  0.64427719  0.44199119    -0.36100
N1493       N  0.09935683  0.67014563  0.38762432    -0.56700
N1494       N  0.11811263  0.63638721  0.35292507    -0.36100
N1495       N  0.14767827  0.61260932  0.38962973    -0.56700
C1496       C  0.12289433  0.66580133  0.43195559     0.27500
C1497       C  0.14963056  0.63764793  0.43364889     0.27500
C1498       C  0.10708764  0.65223053  0.33807013     0.27500
C1499       C  0.13206208  0.62213416  0.33896327     0.27500
C1500       C  0.09003469  0.68031167  0.40761214     0.36100
C1501       C  0.08596365  0.67729154  0.36881335     0.36100
C1502       C  0.15749248  0.60249782  0.40942807     0.36100
C1503       C  0.15226638  0.59774701  0.37102420     0.36100
C1504       C  0.14214449  0.67331841  0.41806632    -0.21400
C1505       C  0.15907050  0.65547351  0.41913621    -0.21400
C1506       C  0.11381666  0.64762925  0.31449249    -0.21400
C1507       C  0.12952959  0.62877907  0.31504803    -0.21400
C1508       C  0.07041559  0.69440931  0.40152219    -0.22500
C1509       C  0.06800420  0.69270782  0.37674441    -0.22500
C1510       C  0.16822561  0.58085066  0.40352143    -0.22500
C1511       C  0.16509575  0.57792819  0.37902528    -0.22500
C1512       C  0.09974903  0.67599887  0.43077300    -0.17800
C1513       C  0.15710789  0.61365706  0.43230539    -0.17800
C1514       C  0.14673655  0.60288379  0.34676340    -0.17800
C1515       C  0.09038525  0.67024824  0.34475964    -0.17800
H1516       H  0.14291370  0.68908191  0.40677748     0.15100
H1517       H  0.17533400  0.65445400  0.40848692     0.15100
H1518       H  0.10799903  0.65684600  0.29841037     0.15100
H1519       H  0.13804050  0.62083423  0.29943734     0.15100
H1520       H  0.05937572  0.70512035  0.41344086     0.13400
H1521       H  0.05453236  0.70161567  0.36587329     0.13400
H1522       H  0.17787461  0.56886931  0.41538146     0.13400
H1523       H  0.17176178  0.56310242  0.36827018     0.13400
H1524       H  0.11549244  0.63334800  0.45111381     0.26600
H1525       H  0.11573179  0.63475918  0.37134841     0.26600
C1526       C  0.23453032  0.71023043  0.69662867     0.80700
N1527       N  0.22437369  0.70064849  0.71662290    -0.77600
C1528       C  0.20488671  0.71095316  0.72715016     0.83200
N1529       N  0.19547743  0.73126574  0.71743533    -0.77500
C1530       C  0.20515841  0.74111854  0.69729588     0.83200
N1531       N  0.22468591  0.73043538  0.68703258    -0.79300
C1532       C  0.20023801  0.52994032  0.53912421     0.80700
N1533       N  0.19035691  0.54272040  0.52082566    -0.77600
C1534       C  0.20161011  0.56255574  0.51195385     0.83200
N1535       N  0.22309651  0.56956456  0.52181114    -0.77500
C1536       C  0.23333267  0.55700752  0.54015673     0.83200
N1537       N  0.22171265  0.53724351  0.54858234    -0.79300
N1538       N  0.32247809  0.62928944  0.62154189    -0.36100
N1539       N  0.35926278  0.65398518  0.65036930    -0.56700
N1540       N  0.39687621  0.62776475  0.62416291    -0.36100
N1541       N  0.35967488  0.60063921  0.59790876    -0.56700
C1542       C  0.30818988  0.64125493  0.63721809     0.27500
C1543       C  0.30843453  0.61332625  0.60935625     0.27500
C1544       C  0.41017799  0.63821842  0.64183478     0.27500
C1545       C  0.41035819  0.60993159  0.61455921     0.27500
C1546       C  0.33976619  0.66646773  0.65788544     0.36100
C1547       C  0.37892648  0.66555588  0.65923113     0.36100
C1548       C  0.34040107  0.59327314  0.58472047     0.36100
C1549       C  0.37947815  0.59200834  0.58675662     0.36100
C1550       C  0.28466730  0.63293844  0.63476652    -0.21400
C1551       C  0.28480937  0.61540527  0.61722076    -0.21400
C1552       C  0.43254194  0.62720106  0.64317114    -0.21400
C1553       C  0.43263233  0.60932542  0.62600371    -0.21400
C1554       C  0.34707661  0.68586525  0.67196797    -0.22500
C1555       C  0.37185912  0.68533075  0.67277126    -0.22500
C1556       C  0.34798362  0.57957301  0.56528004    -0.22500
C1557       C  0.37271427  0.57886503  0.56649855    -0.22500
C1558       C  0.31541483  0.66019788  0.65295208    -0.17800
C1559       C  0.31598481  0.59778570  0.59049757    -0.17800
C1560       C  0.40349093  0.59459093  0.59530129    -0.17800
C1561       C  0.40310460  0.65785929  0.65639891    -0.17800
H1562       H  0.26890834  0.63901708  0.64443480     0.15100
H1563       H  0.26914672  0.60553308  0.61084336     0.15100
H1564       H  0.44725460  0.63148027  0.65536895     0.15100
H1565       H  0.44742721  0.59720541  0.62242626     0.15100
H1566       H  0.33574186  0.69899095  0.68081193     0.13400
H1567       H  0.38334595  0.69794124  0.68241793     0.13400
H1568       H  0.33686691  0.57089005  0.55168209     0.13400
H1569       H  0.38436557  0.56954603  0.55399221     0.13400
H1570       H  0.34051179  0.63266856  0.61844912     0.26600
H1571       H  0.38004025  0.63323322  0.61828648     0.26600
C1572       C  0.04639733  0.55718502  0.72525431     0.80700
N1573       N  0.02688782  0.56790767  0.71515204    -0.77600
C1574       C  0.01640500  0.55871488  0.69492938     0.83200
N1575       N  0.02582463  0.53860205  0.68470767    -0.77500
C1576       C  0.04536021  0.52760068  0.69452617     0.83200
N1577       N  0.05563546  0.53712073  0.71474148    -0.79300
N1578       N  0.11912493  0.44139841  0.61336694    -0.36100
N1579       N  0.09501245  0.40353677  0.64096570    -0.56700
N1580       N  0.12094069  0.36765235  0.61364960    -0.36100
N1581       N  0.14776623  0.40559765  0.58859948    -0.56700
C1582       C  0.10876942  0.45433236  0.63120039     0.27500
C1583       C  0.13644663  0.45543981  0.60352922     0.27500
C1584       C  0.11171851  0.35397637  0.63146179     0.27500
C1585       C  0.13916839  0.35507334  0.60370644     0.27500
C1586       C  0.08195806  0.42265289  0.64827451     0.36100
C1587       C  0.08313748  0.38370928  0.64849369     0.36100
C1588       C  0.15473721  0.42519315  0.57611152     0.36100
C1589       C  0.15547759  0.38622487  0.57607024     0.36100
C1590       C  0.11950385  0.47689870  0.63257775    -0.21400
C1591       C  0.13695431  0.47758892  0.61513164    -0.21400
C1592       C  0.12413351  0.33244291  0.63272506    -0.21400
C1593       C  0.14144311  0.33311789  0.61518784    -0.21400
C1594       C  0.06173895  0.41497585  0.66068017    -0.22500
C1595       C  0.06248838  0.39025290  0.66081779    -0.22500
C1596       C  0.16721553  0.41825471  0.55569128    -0.22500
C1597       C  0.16766721  0.39352151  0.55565279    -0.22500
C1598       C  0.08906433  0.44689071  0.64546816    -0.17800
C1599       C  0.15115248  0.44921962  0.58372081    -0.17800
C1600       C  0.15290839  0.36214476  0.58362521    -0.17800
C1601       C  0.09180244  0.35995511  0.64599924    -0.17800
H1602       H  0.11517578  0.49142889  0.64485588     0.15100
H1603       H  0.14868635  0.49270772  0.61141439     0.15100
H1604       H  0.12101316  0.31771703  0.64496435     0.15100
H1605       H  0.15422979  0.31898430  0.61128359     0.15100
H1606       H  0.04810511  0.42604005  0.66907748     0.13400
H1607       H  0.04955864  0.37846301  0.66933553     0.13400
H1608       H  0.17530676  0.42979872  0.54234604     0.13400
H1609       H  0.17621335  0.38221715  0.54228365     0.13400
H1610       H  0.11368084  0.42449863  0.60738735     0.26600
H1611       H  0.11432899  0.38396830  0.60759856     0.26600
N1612       N  0.92794976  0.63919899  0.62022018    -0.36100
N1613       N  0.89015747  0.66160406  0.59138746    -0.56700
N1614       N  0.85425854  0.63692363  0.62054076    -0.36100
N1615       N  0.89189619  0.61190615  0.64682082    -0.56700
C1616       C  0.94127850  0.64984144  0.60291832     0.27500
C1617       C  0.94218654  0.62280674  0.63118676     0.27500
C1618       C  0.84037845  0.64531327  0.60246770     0.27500
C1619       C  0.84122200  0.61984516  0.63177935     0.27500
C1620       C  0.90918015  0.67443625  0.58332555     0.36100
C1621       C  0.87010201  0.67261212  0.58313822     0.36100
C1622       C  0.91177376  0.60477612  0.65889966     0.36100
C1623       C  0.87268685  0.60455796  0.65973936     0.36100
C1624       C  0.96435966  0.64031847  0.60312286    -0.21400
C1625       C  0.96491220  0.62325769  0.62085978    -0.21400
C1626       C  0.81825548  0.63355101  0.60231149    -0.21400
C1627       C  0.81876818  0.61750993  0.62082415    -0.21400
C1628       C  0.90116994  0.69346973  0.56947088    -0.22500
C1629       C  0.87635939  0.69228882  0.56933365    -0.22500
C1630       C  0.90515613  0.59251209  0.67949519    -0.22500
C1631       C  0.88033739  0.59243009  0.68005262    -0.22500
C1632       C  0.93365029  0.66860237  0.58753568    -0.17800
C1633       C  0.93573234  0.60813117  0.65092710    -0.17800
C1634       C  0.84842513  0.60712035  0.65240664    -0.17800
C1635       C  0.84630784  0.66448025  0.58716114    -0.17800
H1636       H  0.97931222  0.64514467  0.59165519     0.15100
H1637       H  0.98040107  0.61250755  0.62568536     0.15100
H1638       H  0.80314281  0.63640422  0.59027991     0.15100
H1639       H  0.80411473  0.60562851  0.62573176     0.15100
H1640       H  0.91205556  0.70674638  0.56034437     0.13400
H1641       H  0.86432227  0.70442465  0.56007094     0.13400
H1642       H  0.91696683  0.58434817  0.69264179     0.13400
H1643       H  0.86920400  0.58408671  0.69361165     0.13400
H1644       H  0.91056856  0.64379824  0.62506759     0.26600
H1645       H  0.87093029  0.64360762  0.62591246     0.26600
N1646       N  0.12430298  0.82952759  0.62227377    -0.36100
N1647       N  0.09480907  0.86732138  0.59995702    -0.56700
N1648       N  0.12194484  0.90351320  0.62653276    -0.36100
N1649       N  0.14853432  0.86530326  0.65179892    -0.56700
C1650       C  0.10715717  0.81616358  0.61100825     0.27500
C1651       C  0.13544714  0.81514222  0.63844876     0.27500
C1652       C  0.10388131  0.91714975  0.61761929     0.27500
C1653       C  0.13222859  0.91612038  0.64474131     0.32300
C1654       C  0.08770687  0.84830551  0.58634800     0.36100
C1655       C  0.08627835  0.88721868  0.58899159     0.36100
C1656       C  0.16173089  0.84592495  0.65815836     0.36100
C1657       C  0.16060273  0.88484130  0.66008522     0.36100
C1658       C  0.10760353  0.79291917  0.61993924    -0.21400
C1659       C  0.12542480  0.79228653  0.63722274    -0.21400
C1660       C  0.10291891  0.93880081  0.63008367    -0.21400
C1661       C  0.12076902  0.93813100  0.64725244    -0.21400
C1662       C  0.07438309  0.85613806  0.56675521    -0.22500
C1663       C  0.07345465  0.88079421  0.56844841    -0.22500
C1664       C  0.18212258  0.85314397  0.67080736    -0.22500
C1665       C  0.18145815  0.87779875  0.67197695    -0.22500
C1666       C  0.09186928  0.82391095  0.59208203    -0.17800
C1667       C  0.15504263  0.82175518  0.65362491    -0.17800
C1668       C  0.15231773  0.90883787  0.65853343    -0.17800
C1669       C  0.08873356  0.91097453  0.59803642    -0.17800
H1670       H  0.09628386  0.77789768  0.61452932     0.15100
H1671       H  0.13044411  0.77673010  0.64767817     0.15100
H1672       H  0.09060628  0.95355373  0.62715716     0.15100
H1673       H  0.12486129  0.95230431  0.66010706     0.15100
H1674       H  0.06600881  0.84521024  0.55282057     0.13400
H1675       H  0.06427859  0.89262251  0.55606087     0.13400
H1676       H  0.19597341  0.84183556  0.67846855     0.13400
H1677       H  0.19474444  0.88921594  0.68076038     0.13400
H1678       H  0.12893048  0.84707613  0.61813133     0.26600
H1679       H  0.12779678  0.88710181  0.61986729     0.26600
N1680       N  0.12525851  0.63452846  0.81353039    -0.36100
N1681       N  0.09651111  0.60991727  0.84978114    -0.56700
N1682       N  0.12305489  0.63612641  0.88699764    -0.36100
N1683       N  0.14920693  0.66338696  0.85087023    -0.56700
C1684       C  0.10823527  0.62368170  0.79960438     0.27500
C1685       C  0.13570851  0.65191627  0.80015063     0.27500
C1686       C  0.10550557  0.62590384  0.90029569     0.27500
C1687       C  0.13359739  0.65324291  0.90088782     0.27500
C1688       C  0.08967418  0.59691314  0.83028873     0.36100
C1689       C  0.08838467  0.59799069  0.86923202     0.36100
C1690       C  0.16195421  0.67091240  0.83167074     0.36100
C1691       C  0.16128482  0.67113231  0.87067092     0.36100
C1692       C  0.10798572  0.63421124  0.77705902    -0.21400
C1693       C  0.12529850  0.65199301  0.77740257    -0.21400
C1694       C  0.10512540  0.63654092  0.92297945    -0.21400
C1695       C  0.12276102  0.65380735  0.92330628    -0.21400
C1696       C  0.07683932  0.57672435  0.83736114    -0.22500
C1697       C  0.07595348  0.57745651  0.86208180    -0.22500
C1698       C  0.18200643  0.68392470  0.83931346    -0.22500
C1699       C  0.18156407  0.68407327  0.86406038    -0.22500
C1700       C  0.09366939  0.60380659  0.80620952    -0.17800
C1701       C  0.15522888  0.66691965  0.80737114    -0.17800
C1702       C  0.15371333  0.66741253  0.89458974    -0.17800
C1703       C  0.09091093  0.60618180  0.89322491    -0.17800
H1704       H  0.09655369  0.62952312  0.76187404     0.15100
H1705       H  0.12976371  0.66363212  0.76253560     0.15100
H1706       H  0.09367608  0.63216461  0.93802990     0.15100
H1707       H  0.12728053  0.66526875  0.93851034     0.15100
H1708       H  0.06875914  0.56303902  0.82591344     0.13400
H1709       H  0.06705036  0.56447566  0.87345978     0.13400
H1710       H  0.19551306  0.69245929  0.82823309     0.13400
H1711       H  0.19460459  0.69276711  0.87582934     0.13400
H1712       H  0.13047366  0.62936328  0.83064820     0.26600
H1713       H  0.12860366  0.63068946  0.87007008     0.26600
C1714       C  0.80139802  0.27664964  0.29378169     0.80700
N1715       N  0.81103402  0.28624418  0.27355322    -0.77600
C1716       C  0.80081091  0.30541779  0.26251684     0.83200
N1717       N  0.78041842  0.31508659  0.27208572    -0.77500
C1718       C  0.77043790  0.30591086  0.29245641     0.83200
N1719       N  0.78112276  0.28670525  0.30314789    -0.79300
N1720       N  0.67715301  0.38494810  0.36488317    -0.36100
N1721       N  0.63743068  0.41231098  0.38659919    -0.56700
N1722       N  0.60359474  0.38454193  0.35775901    -0.36100
N1723       N  0.64339240  0.35980871  0.33344712    -0.56700
C1724       C  0.68948110  0.40251573  0.37666676     0.27500
C1725       C  0.69255994  0.37442547  0.34918775     0.27500
C1726       C  0.58886960  0.40156586  0.36694424     0.27500
C1727       C  0.59204573  0.37455405  0.33869778     0.27500
C1728       C  0.65574596  0.41986391  0.40092760     0.36100
C1729       C  0.61676364  0.41911582  0.39748899     0.36100
C1730       C  0.66344445  0.34687879  0.32867367     0.36100
C1731       C  0.62449673  0.34696273  0.32470213     0.36100
C1732       C  0.71309804  0.40300342  0.36847845    -0.21400
C1733       C  0.71500408  0.38535324  0.35112215    -0.21400
C1734       C  0.56769103  0.40237546  0.35362753    -0.21400
C1735       C  0.56976218  0.38542863  0.33567043    -0.21400
C1736       C  0.64667971  0.43200943  0.42078505    -0.22500
C1737       C  0.62195388  0.43146353  0.41863610    -0.22500
C1738       C  0.65731518  0.32586358  0.31654462    -0.22500
C1739       C  0.63261961  0.32587187  0.31408734    -0.22500
C1740       C  0.68053261  0.41696054  0.39574778    -0.17800
C1741       C  0.68727055  0.35440860  0.33410173    -0.17800
C1742       C  0.60015057  0.35455076  0.32525009    -0.17800
C1743       C  0.59336595  0.41526482  0.38794642    -0.17800
H1744       H  0.72761309  0.41465535  0.37454764     0.15100
H1745       H  0.73116851  0.38091136  0.34123180     0.15100
H1746       H  0.55225753  0.41382998  0.35667423     0.15100
H1747       H  0.55617301  0.38122216  0.32221411     0.15100
H1748       H  0.65681148  0.44047774  0.43525470     0.13400
H1749       H  0.60927757  0.43941555  0.43108433     0.13400
H1750       H  0.66937191  0.31199117  0.31014957     0.13400
H1751       H  0.62189931  0.31194976  0.30543758     0.13400
H1752       H  0.65966785  0.37946395  0.36850221     0.26600
H1753       H  0.61975130  0.37876362  0.36515333     0.26600
C1754       C  0.75737303  0.45901146  0.45351814     0.80700
N1755       N  0.76889398  0.47880712  0.44502056    -0.77600
C1756       C  0.78888133  0.48774692  0.45617429     0.83200
N1757       N  0.79732034  0.47671138  0.47620759    -0.77500
C1758       C  0.78615759  0.45687537  0.48506649     0.83200
N1759       N  0.76624196  0.44807109  0.47352734    -0.79300
C1760       C  0.95464158  0.46258387  0.26446263     0.80700
N1761       N  0.97506814  0.45284078  0.27383151    -0.77600
C1762       C  0.98520437  0.46166090  0.29440841     0.83200
N1763       N  0.97437771  0.48041650  0.30585484    -0.77500
C1764       C  0.95392875  0.49051403  0.29691174     0.83200
N1765       N  0.94414891  0.48143131  0.27617206    -0.79300
C1766       C  0.98206967  0.30559781  0.45499915     0.80700
N1767       N  0.97159298  0.31532141  0.47491592    -0.77600
C1768       C  0.95268734  0.30409095  0.48569982     0.83200
N1769       N  0.94422825  0.28307782  0.47621791    -0.77500
C1770       C  0.95444022  0.27303685  0.45641496     0.83200
N1771       N  0.97337871  0.28444070  0.44596854    -0.79300
N1772       N  0.06946419  0.38356513  0.37485753    -0.36100
N1773       N  0.10507078  0.35419402  0.39964330    -0.56700
N1774       N  0.14350388  0.38161802  0.37662770    -0.36100
N1775       N  0.10788931  0.40847251  0.34925534    -0.56700
C1776       C  0.05494483  0.36716433  0.38545072     0.27500
C1777       C  0.05648273  0.39434262  0.35729683     0.27500
C1778       C  0.15617038  0.36300244  0.38553463     0.27500
C1779       C  0.15773090  0.39250728  0.36033763     0.27500
C1780       C  0.08530687  0.34768191  0.41221051     0.36100
C1781       C  0.12435468  0.34534886  0.41158736     0.36100
C1782       C  0.08882388  0.42095987  0.34082267     0.36100
C1783       C  0.12787700  0.42100257  0.34321814     0.36100
C1784       C  0.03233559  0.36770503  0.37470021    -0.21400
C1785       C  0.03330128  0.38479493  0.35695343    -0.21400
C1786       C  0.17875050  0.36217751  0.37490823    -0.21400
C1787       C  0.17980558  0.38092723  0.35913668    -0.21400
C1788       C  0.09207821  0.33439171  0.43213327    -0.22500
C1789       C  0.11682564  0.33281718  0.43166611    -0.22500
C1790       C  0.09677582  0.44136009  0.32899257    -0.22500
C1791       C  0.12153332  0.44143887  0.33060880    -0.22500
C1792       C  0.06119737  0.35237866  0.40517051    -0.17800
C1793       C  0.06444746  0.41354389  0.34257975    -0.17800
C1794       C  0.15177125  0.41318484  0.34719789    -0.17800
C1795       C  0.14857008  0.34756340  0.40399629    -0.17800
H1796       H  0.01670419  0.35694561  0.37921033     0.15100
H1797       H  0.01845700  0.38978031  0.34533197     0.15100
H1798       H  0.19311864  0.34951871  0.37831842     0.15100
H1799       H  0.19513661  0.38546898  0.34805939     0.15100
H1800       H  0.08039878  0.32645699  0.44547765     0.13400
H1801       H  0.12799741  0.32353251  0.44460958     0.13400
H1802       H  0.08590980  0.45470685  0.31998328     0.13400
H1803       H  0.13350832  0.45475972  0.32299512     0.13400
H1804       H  0.08680320  0.38805654  0.38028392     0.26600
H1805       H  0.12672963  0.38744094  0.38232356     0.26600
N1806       N  0.86654475  0.37842824  0.57013074    -0.36100
N1807       N  0.84206513  0.40648734  0.60721989    -0.56700
N1808       N  0.87066031  0.38255696  0.64397719    -0.36100
N1809       N  0.89776045  0.35727939  0.60689051    -0.56700
C1810       C  0.85435140  0.39436455  0.55638807     0.27500
C1811       C  0.88389794  0.36847783  0.55622356     0.27500
C1812       C  0.86043177  0.40017289  0.65721936     0.27500
C1813       C  0.88926060  0.37395778  0.65703265     0.27500
C1814       C  0.82810561  0.41229688  0.58814719     0.36100
C1815       C  0.83048455  0.41445969  0.62705926     0.36100
C1816       C  0.90482579  0.34420326  0.58761959     0.36100
C1817       C  0.90643045  0.34598838  0.62655940     0.36100
C1818       C  0.86383778  0.39422877  0.53333762    -0.21400
C1819       C  0.88244939  0.37793648  0.53323953    -0.21400
C1820       C  0.87253166  0.40264371  0.67901351    -0.21400
C1821       C  0.89071545  0.38604325  0.67891678    -0.21400
C1822       C  0.80761731  0.42421513  0.59589436    -0.22500
C1823       C  0.80913709  0.42559840  0.62056765    -0.22500
C1824       C  0.91829085  0.32464040  0.59507256    -0.22500
C1825       C  0.91928117  0.32576247  0.61978287    -0.22500
C1826       C  0.83444080  0.40851692  0.56378854    -0.17800
C1827       C  0.90041265  0.35041942  0.56336657    -0.17800
C1828       C  0.90405433  0.35452764  0.65041938    -0.17800
C1829       C  0.83974473  0.41327463  0.65077664    -0.17800
H1830       H  0.85800062  0.40480828  0.51813061     0.15100
H1831       H  0.89364824  0.37356276  0.51794136     0.15100
H1832       H  0.86856495  0.41499318  0.69359135     0.15100
H1833       H  0.90345873  0.38311085  0.69340779     0.15100
H1834       H  0.79323969  0.43142769  0.58489486     0.13400
H1835       H  0.79617407  0.43407604  0.63235747     0.13400
H1836       H  0.92659889  0.31103627  0.58386988     0.13400
H1837       H  0.92855341  0.31326424  0.63141248     0.13400
H1838       H  0.86252630  0.37376970  0.58767362     0.26600
H1839       H  0.86441957  0.37577239  0.62766916     0.26600
N1840       N  0.87760718  0.38348206  0.17505052    -0.36100
N1841       N  0.84853711  0.35976486  0.13746726    -0.56700
N1842       N  0.87337005  0.38855342  0.10148069    -0.36100
N1843       N  0.89950344  0.41483267  0.13918377    -0.56700
C1844       C  0.86163762  0.37122177  0.18873414     0.27500
C1845       C  0.88885236  0.39980593  0.18952454     0.27500
C1846       C  0.85560509  0.37846486  0.08804141     0.27500
C1847       C  0.88200113  0.40744766  0.08896494     0.27500
C1848       C  0.84192783  0.34615011  0.15642382     0.36100
C1849       C  0.84041722  0.34836484  0.11736993     0.36100
C1850       C  0.91316015  0.42113535  0.15847564     0.36100
C1851       C  0.91075807  0.42370193  0.11960779     0.36100
C1852       C  0.86309579  0.37963058  0.21228062    -0.21400
C1853       C  0.88019579  0.39760208  0.21276622    -0.21400
C1854       C  0.85297697  0.39105946  0.06672613    -0.21400
C1855       C  0.86959032  0.40939787  0.06735050    -0.21400
C1856       C  0.82915413  0.32614382  0.14833372    -0.22500
C1857       C  0.82828592  0.32750002  0.12358297    -0.22500
C1858       C  0.93304352  0.43432243  0.15115774    -0.22500
C1859       C  0.93157465  0.43587372  0.12651518    -0.22500
C1860       C  0.84631922  0.35209572  0.18094705    -0.17800
C1861       C  0.90736815  0.41605690  0.18268322    -0.17800
C1862       C  0.90181483  0.42202452  0.09574661    -0.17800
C1863       C  0.84274951  0.35729301  0.09366103    -0.17800
H1864       H  0.85291017  0.37346182  0.22762293     0.15100
H1865       H  0.88564061  0.40786389  0.22851724     0.15100
H1866       H  0.84051033  0.38732105  0.05210699     0.15100
H1867       H  0.87241831  0.42249716  0.05332465     0.15100
H1868       H  0.82123908  0.31208330  0.15914304     0.13400
H1869       H  0.81947356  0.31477856  0.11156947     0.13400
H1870       H  0.94714992  0.44198131  0.16240069     0.13400
H1871       H  0.94432661  0.44499670  0.11502382     0.13400
H1872       H  0.88139070  0.38016564  0.15712519     0.26600
H1873       H  0.88035754  0.38188700  0.11741764     0.26600
N1874       N  0.87390092  0.57236624  0.38181354    -0.36100
N1875       N  0.89884682  0.60967549  0.35532422    -0.56700
N1876       N  0.87002961  0.64611905  0.38009544    -0.36100
N1877       N  0.84285750  0.60888978  0.40402868    -0.56700
C1878       C  0.88545754  0.55889573  0.36506654     0.27500
C1879       C  0.85618042  0.55856189  0.39122500     0.27500
C1880       C  0.87988044  0.65891172  0.36206061     0.27500
C1881       C  0.85049247  0.65842707  0.38773130     0.27500
C1882       C  0.91269152  0.59067716  0.34907708     0.36100
C1883       C  0.91101977  0.62971642  0.34882040     0.36100
C1884       C  0.83665058  0.58953572  0.41717193     0.36100
C1885       C  0.83472180  0.62837284  0.41614512     0.36100
C1886       C  0.87508423  0.53615687  0.36405701    -0.21400
C1887       C  0.85663888  0.53594474  0.38055417    -0.21400
C1888       C  0.86643547  0.67955433  0.35822339    -0.21400
C1889       C  0.84778989  0.67915379  0.37435439    -0.21400
C1890       C  0.93373895  0.59868821  0.33835955    -0.22500
C1891       C  0.93270620  0.62344952  0.33825277    -0.22500
C1892       C  0.82436408  0.59671238  0.43765214    -0.22500
C1893       C  0.82323395  0.62137637  0.43705239    -0.22500
C1894       C  0.90566015  0.56626216  0.35132259    -0.17800
C1895       C  0.84040467  0.56543842  0.41001884    -0.17800
C1896       C  0.83598555  0.65214584  0.40745072    -0.17800
C1897       C  0.90162877  0.65331066  0.35024525    -0.17800
H1898       H  0.88029947  0.52121159  0.35266814     0.15100
H1899       H  0.84492939  0.52081684  0.38430625     0.15100
H1900       H  0.86974187  0.69362766  0.34531204     0.15100
H1901       H  0.83397304  0.69272007  0.37620671     0.15100
H1902       H  0.94815484  0.58781632  0.33109700     0.13400
H1903       H  0.94609193  0.63543176  0.33075181     0.13400
H1904       H  0.81683491  0.58534427  0.45146604     0.13400
H1905       H  0.81466708  0.63280737  0.45029875     0.13400
H1906       H  0.87856688  0.58960425  0.38746218     0.26600
H1907       H  0.87727337  0.63079590  0.38787146     0.26600
N1908       N  0.87880102  0.18835924  0.37425838    -0.36100
N1909       N  0.90396937  0.14945442  0.39894448    -0.56700
N1910       N  0.87531820  0.11478493  0.37137492    -0.36100
N1911       N  0.85276613  0.15353211  0.34440313    -0.56700
C1912       C  0.89612064  0.20106944  0.38606664     0.27500
C1913       C  0.86831957  0.20325134  0.35815235     0.27500
C1914       C  0.89226271  0.10059505  0.38144266     0.27500
C1915       C  0.86650961  0.10279235  0.35196569     0.27500
C1916       C  0.91229251  0.16826373  0.41215672     0.36100
C1917       C  0.90947312  0.12932293  0.41129154     0.36100
C1918       C  0.84069246  0.17360422  0.33808046     0.36100
C1919       C  0.83991748  0.13464755  0.33566719     0.36100
C1920       C  0.89650484  0.22443717  0.37744276    -0.21400
C1921       C  0.87897098  0.22581413  0.35989736    -0.21400
C1922       C  0.89424011  0.07939642  0.36834340    -0.21400
C1923       C  0.87813671  0.08088352  0.34958561    -0.21400
C1924       C  0.92359321  0.15999739  0.43280425    -0.22500
C1925       C  0.92170134  0.13530149  0.43230363    -0.22500
C1926       C  0.82021883  0.16746268  0.32495382    -0.22500
C1927       C  0.81965668  0.14277669  0.32352861    -0.22500
C1928       C  0.91050500  0.19272074  0.40546801    -0.17800
C1929       C  0.84860551  0.19741305  0.34279421    -0.17800
C1930       C  0.84709088  0.11030310  0.33736681    -0.17800
C1931       C  0.90497263  0.10564511  0.40292958    -0.17800
H1932       H  0.90799001  0.23912754  0.38339885     0.15100
H1933       H  0.87442975  0.24172816  0.34977052     0.15100
H1934       H  0.90603987  0.06438396  0.37194323     0.15100
H1935       H  0.87505663  0.06720265  0.33594761     0.15100
H1936       H  0.93229603  0.17064093  0.44675949     0.13400
H1937       H  0.92879000  0.12313704  0.44567732     0.13400
H1938       H  0.80710503  0.17950547  0.31713441     0.13400
H1939       H  0.80596681  0.13208982  0.31445750     0.13400
H1940       H  0.87347520  0.17092182  0.37794593     0.26600
H1941       H  0.86891997  0.13088131  0.37841389     0.26600
O1942       O  0.01936664  0.27726198  0.80134376    -0.78000
C1943       C  0.95945681  0.22625485  0.78693881     0.83000
O1944       O  0.04415788  0.21999914  0.73961035    -0.79100
O1945       O  0.95949688  0.23685123  0.71299677    -0.80600
O1946       O  0.97947668  0.31346871  0.72978291    -0.80400
O1947       O  0.01888144  0.30962543  0.77825798    -0.79000
Zn1948     Zn  0.00746768  0.25096862  0.77936794     1.55700
O1949       O  0.94824869  0.28862702  0.73369191    -0.80400
Cd1950     Cd  0.00746525  0.29559018  0.74590303     1.59700
Cd1951     Cd  0.01930640  0.24284417  0.72182894     1.59600
O1952       O  0.03518230  0.30147101  0.72310532    -0.80400
O1953       O  0.00047201  0.26099765  0.74730789    -1.90900
Cd1954     Cd  0.96531577  0.25720552  0.74267355     1.59900
O1955       O  0.03857805  0.26813124  0.70076934    -0.80400
O1956       O  0.94958986  0.23683610  0.76921973    -0.79000
C1957       C  0.04754509  0.21834093  0.76234744     0.83500
C1958       C  0.02426722  0.29933663  0.79794689     0.83200
O1959       O  0.98112115  0.23077307  0.79318638    -0.78000
C1960       C  0.95749494  0.30803430  0.72581075     0.84000
O1961       O  0.03477086  0.22957970  0.77743647    -0.78100
C1962       C  0.04383820  0.29020391  0.70521324     0.84100
C1963       C  0.97174184  0.22405411  0.69865432     0.84400
O1964       O  0.99481617  0.22297396  0.69977268    -0.80500
C1965       C  0.03751365  0.21518862  0.99942239     0.80700
N1966       N  0.01935969  0.20427401  0.01181916    -0.77600
C1967       C  0.01176684  0.21333541  0.03333416     0.83200
N1968       N  0.02241088  0.23360295  0.04224521    -0.77500
C1969       C  0.04050895  0.24466594  0.03018063     0.83200
N1970       N  0.04811376  0.23521830  0.00896309    -0.79300
N1971       N  0.12067053  0.32485190  0.11465555    -0.36100
N1972       N  0.14408452  0.35993093  0.14654853    -0.56700
N1973       N  0.12250037  0.39856420  0.11862773    -0.36100
N1974       N  0.09629234  0.36363361  0.08908180    -0.56700
C1975       C  0.12895525  0.31013104  0.13213653     0.27500
C1976       C  0.10484587  0.31203724  0.10099720     0.27500
C1977       C  0.13213858  0.41105149  0.13727968     0.27500
C1978       C  0.10590545  0.41291756  0.10822960     0.27500
C1979       C  0.15446775  0.33974749  0.15504708     0.36100
C1980       C  0.15660678  0.37867876  0.15599114     0.36100
C1981       C  0.08968579  0.34506944  0.07464839     0.36100
C1982       C  0.08961029  0.38398403  0.07772570     0.36100
C1983       C  0.11858619  0.28753617  0.12922910    -0.21400
C1984       C  0.10336901  0.28875388  0.10969195    -0.21400
C1985       C  0.12180380  0.43367790  0.13858670    -0.21400
C1986       C  0.10521158  0.43484199  0.12030724    -0.21400
C1987       C  0.17343370  0.34572172  0.17035634    -0.22500
C1988       C  0.17488313  0.37041231  0.17083218    -0.22500
C1989       C  0.07854530  0.35369100  0.05405426    -0.22500
C1990       C  0.07841009  0.37836680  0.05606422    -0.22500
C1991       C  0.14640846  0.31605391  0.15000526    -0.17800
C1992       C  0.09211635  0.32045339  0.08051532    -0.17800
C1993       C  0.09230842  0.40744136  0.08734669    -0.17800
C1994       C  0.15078612  0.40312260  0.15256619    -0.17800
H1995       H  0.12168447  0.27170528  0.13999751     0.15100
H1996       H  0.09246456  0.27407638  0.10269370     0.15100
H1997       H  0.12582270  0.44793293  0.15137353     0.15100
H1998       H  0.09407792  0.45024360  0.11627652     0.15100
H1999       H  0.18497868  0.33357708  0.18020507     0.13400
H2000       H  0.18767649  0.38105295  0.18119171     0.13400
H2001       H  0.07104965  0.34328183  0.03925607     0.13400
H2002       H  0.07082949  0.39074016  0.04315611     0.13400
H2003       H  0.12628851  0.34230268  0.11151129     0.26600
H2004       H  0.12802365  0.38183416  0.11253444     0.26600
C2005       C  0.02449006  0.04894419  0.23601545     0.80700
N2006       N  0.03399724  0.02927365  0.22498562    -0.77600
C2007       C  0.02453322  0.02068356  0.20396575     0.83200
N2008       N  0.00546548  0.03221790  0.19383621    -0.77500
C2009       C  0.99572871  0.05187794  0.20465054     0.83200
N2010       N  0.00545576  0.06013967  0.22559146    -0.79300
C2011       C  0.18595970  0.23312515  0.19931074     0.80700
N2012       N  0.17513224  0.22407354  0.21931632    -0.77600
C2013       C  0.18436561  0.20440937  0.23057582     0.83200
N2014       N  0.20440148  0.19368748  0.22144699    -0.77500
C2015       C  0.21526666  0.20234528  0.20140681     0.83200
N2016       N  0.20584489  0.22197528  0.19056428    -0.79300
N2017       N  0.10523280  0.12826726  0.31977036    -0.36100
N2018       N  0.13621345  0.15137767  0.35495482    -0.56700
N2019       N  0.11065761  0.12556908  0.39349763    -0.36100
N2020       N  0.08237742  0.09980373  0.35807829    -0.56700
C2021       C  0.12182746  0.13861515  0.30524947     0.27500
C2022       C  0.09399337  0.11078671  0.30683803     0.27500
C2023       C  0.12987003  0.13465573  0.40551943     0.27500
C2024       C  0.10138119  0.10780574  0.40719366     0.27500
C2025       C  0.14193232  0.16489646  0.33563942     0.36100
C2026       C  0.14493931  0.16316486  0.37449947     0.36100
C2027       C  0.06828053  0.09332915  0.33921783     0.36100
C2028       C  0.07094678  0.09228078  0.37813041     0.36100
C2029       C  0.12098852  0.12766083  0.28277311    -0.21400
C2030       C  0.10340813  0.11015658  0.28374997    -0.21400
C2031       C  0.13271146  0.12272338  0.42718715    -0.21400
C2032       C  0.11477460  0.10570299  0.42819476    -0.21400
C2033       C  0.15456460  0.18525606  0.34295012    -0.22500
C2034       C  0.15653014  0.18412155  0.36758920    -0.22500
C2035       C  0.04785110  0.08144238  0.34728031    -0.22500
C2036       C  0.04951306  0.08083552  0.37196761    -0.22500
C2037       C  0.13699868  0.15832780  0.31144898    -0.17800
C2038       C  0.07452181  0.09634594  0.31480224    -0.17800
C2039       C  0.08058712  0.09409509  0.40170791    -0.17800
C2040       C  0.14389405  0.15450884  0.39830954    -0.17800
H2041       H  0.13186789  0.13187484  0.26723792     0.15100
H2042       H  0.09808143  0.09838915  0.26904389     0.15100
H2043       H  0.14622465  0.12602273  0.44095536     0.15100
H2044       H  0.11187449  0.09328685  0.44281252     0.15100
H2045       H  0.16172240  0.19937993  0.33171870     0.13400
H2046       H  0.16556919  0.19715212  0.37909377     0.13400
H2047       H  0.03341167  0.07375745  0.33648480     0.13400
H2048       H  0.03660136  0.07264134  0.38396872     0.13400
H2049       H  0.10077104  0.13370910  0.33707228     0.26600
H2050       H  0.10351081  0.13219210  0.37758990     0.26600
C2051       C  0.21541880  0.05430391  0.04346182     0.80700
N2052       N  0.20351891  0.03523799  0.05293980    -0.77600
C2053       C  0.18261408  0.02690871  0.04302159     0.83200
N2054       N  0.17355472  0.03797214  0.02320426    -0.77500
C2055       C  0.18529988  0.05700452  0.01328065     0.83200
N2056       N  0.20614359  0.06514320  0.02361545    -0.79300
N2057       N  0.30476188  0.12450648  0.12617654    -0.36100
N2058       N  0.34165536  0.09435975  0.10367355    -0.56700
N2059       N  0.37782834  0.11960249  0.13241220    -0.36100
N2060       N  0.34097662  0.14712527  0.15745492    -0.56700
C2061       C  0.29087314  0.10837882  0.11402442     0.27500
C2062       C  0.29050787  0.13549271  0.14260068     0.27500
C2063       C  0.39117355  0.10163550  0.12298307     0.27500
C2064       C  0.39085498  0.12949731  0.15055285     0.27500
C2065       C  0.32274004  0.08856035  0.08927968     0.36100
C2066       C  0.36172423  0.08611345  0.09263760     0.36100
C2067       C  0.32171982  0.16059645  0.16359533     0.36100
C2068       C  0.36075297  0.15888960  0.16576936     0.36100
C2069       C  0.26746915  0.10930496  0.12269507    -0.21400
C2070       C  0.26724693  0.12634808  0.14069983    -0.21400
C2071       C  0.41287204  0.09999527  0.13538560    -0.21400
C2072       C  0.41270098  0.11761722  0.15274823    -0.21400
C2073       C  0.33077858  0.07606901  0.06920501    -0.22500
C2074       C  0.35551065  0.07456072  0.07131839    -0.22500
C2075       C  0.32924273  0.18078741  0.17640933    -0.22500
C2076       C  0.35403870  0.17975659  0.17769292    -0.22500
C2077       C  0.29829015  0.09369230  0.09448058    -0.17800
C2078       C  0.29744347  0.15445896  0.15839631    -0.17800
C2079       C  0.38464092  0.15042379  0.16352879    -0.17800
C2080       C  0.38543410  0.08831695  0.10201732    -0.17800
H2081       H  0.25206266  0.09884696  0.11661309     0.15100
H2082       H  0.25163028  0.13153421  0.15109320     0.15100
H2083       H  0.42761760  0.08780002  0.13187219     0.15100
H2084       H  0.42730674  0.12155957  0.16516468     0.15100
H2085       H  0.31996361  0.06884668  0.05455922     0.13400
H2086       H  0.36752180  0.06591106  0.05867641     0.13400
H2087       H  0.31804984  0.19482699  0.18392458     0.13400
H2088       H  0.36575306  0.19274337  0.18652741     0.13400
H2089       H  0.32254699  0.12877184  0.12245666     0.26600
H2090       H  0.36181348  0.12618839  0.12547793     0.26600
N2091       N  0.11459840  0.13430966  0.91780756    -0.36100
N2092       N  0.09434518  0.16112620  0.87735895    -0.56700
N2093       N  0.12445552  0.13365719  0.84470976    -0.36100
N2094       N  0.14754371  0.10960959  0.88546414    -0.56700
C2095       C  0.10272122  0.15202957  0.92957532     0.27500
C2096       C  0.13012852  0.12430296  0.93372003     0.27500
C2097       C  0.11595695  0.15058947  0.82962800     0.27500
C2098       C  0.14379595  0.12371233  0.83396745     0.27500
C2099       C  0.07993640  0.16960681  0.89501284     0.36100
C2100       C  0.08484382  0.16865624  0.85626147     0.36100
C2101       C  0.15182518  0.09692530  0.90569546     0.36100
C2102       C  0.15706820  0.09683163  0.86707616     0.36100
C2103       C  0.11066832  0.15309755  0.95328509    -0.21400
C2104       C  0.12796445  0.13568887  0.95586670    -0.21400
C2105       C  0.12994629  0.15126621  0.80902009    -0.21400
C2106       C  0.14759093  0.13434367  0.81180329    -0.21400
C2107       C  0.06132556  0.18290600  0.88510967    -0.22500
C2108       C  0.06441806  0.18227869  0.86054401    -0.22500
C2109       C  0.16440611  0.07613819  0.90016207    -0.22500
C2110       C  0.16773604  0.07608412  0.87567874    -0.22500
C2111       C  0.08418377  0.16667122  0.91996530    -0.17800
C2112       C  0.14542681  0.10444779  0.92918140    -0.17800
C2113       C  0.15710506  0.10414895  0.84276779    -0.17800
C2114       C  0.09531347  0.16475032  0.83337171    -0.17800
H2115       H  0.10463998  0.16518763  0.96734402     0.15100
H2116       H  0.13780116  0.13183344  0.97225011     0.15100
H2117       H  0.12764624  0.16269732  0.79350840     0.15100
H2118       H  0.16149929  0.13016265  0.79885181     0.15100
H2119       H  0.04718267  0.19231868  0.89460562     0.13400
H2120       H  0.05316336  0.19115309  0.84737974     0.13400
H2121       H  0.17051227  0.06241710  0.91245082     0.13400
H2122       H  0.17695239  0.06234592  0.86539835     0.13400
H2123       H  0.11131100  0.12847476  0.90033435     0.26600
H2124       H  0.11663251  0.12809695  0.86064361     0.26600
N2125       N  0.10383963  0.93894376  0.11954579    -0.36100
N2126       N  0.08172657  0.90164487  0.14881148    -0.56700
N2127       N  0.10924424  0.86531606  0.12291570    -0.36100
N2128       N  0.13419898  0.90279150  0.09626816    -0.56700
C2129       C  0.09301182  0.95240812  0.13675037     0.27500
C2130       C  0.12057032  0.95304977  0.10889817     0.27500
C2131       C  0.09997379  0.85195976  0.14087061     0.27500
C2132       C  0.12750837  0.85257846  0.11325322     0.27500
C2133       C  0.06783123  0.92044761  0.15539379     0.36100
C2134       C  0.07054300  0.88164252  0.15686059     0.36100
C2135       C  0.14049911  0.92213699  0.08308924     0.36100
C2136       C  0.14321594  0.88328202  0.08482746     0.36100
C2137       C  0.10282722  0.97538963  0.13686197    -0.21400
C2138       C  0.12016665  0.97580964  0.11927943    -0.21400
C2139       C  0.11235705  0.83042260  0.14253212    -0.21400
C2140       C  0.12972077  0.83079101  0.12507254    -0.21400
C2141       C  0.04779939  0.91237515  0.16784241    -0.22500
C2142       C  0.04953793  0.88776215  0.16879864    -0.22500
C2143       C  0.15388869  0.91490891  0.06333435    -0.22500
C2144       C  0.15563194  0.89027158  0.06445749    -0.22500
C2145       C  0.07386420  0.94486274  0.15173128    -0.17800
C2146       C  0.13561321  0.94631050  0.08948332    -0.17800
C2147       C  0.14142951  0.85940491  0.09324297    -0.17800
C2148       C  0.07991815  0.85811434  0.15506711    -0.17800
H2149       H  0.09800682  0.99033968  0.14842310     0.15100
H2150       H  0.13127941  0.99115008  0.11471948     0.15100
H2151       H  0.10912482  0.81584987  0.15492576     0.15100
H2152       H  0.14244955  0.81653688  0.12143162     0.15100
H2153       H  0.03355041  0.92310934  0.17562001     0.13400
H2154       H  0.03692208  0.87575946  0.17748276     0.13400
H2155       H  0.16178905  0.92622719  0.04968694     0.13400
H2156       H  0.16512468  0.87883741  0.05186548     0.13400
H2157       H  0.09921025  0.92153361  0.11447568     0.26600
H2158       H  0.10257375  0.88150999  0.11668525     0.26600
N2159       N  0.92433214  0.14039946  0.12104370    -0.36100
N2160       N  0.88371718  0.11675834  0.14531348    -0.56700
N2161       N  0.85022230  0.14489234  0.11734268    -0.36100
N2162       N  0.89051652  0.16590205  0.09053276    -0.56700
C2163       C  0.93597444  0.12291610  0.13323925     0.27500
C2164       C  0.93958445  0.14877557  0.10399492     0.27500
C2165       C  0.83510548  0.12830203  0.12667020     0.27500
C2166       C  0.83862613  0.15488860  0.09856032     0.27500
C2167       C  0.90198973  0.10862174  0.15909927     0.36100
C2168       C  0.86307940  0.11071717  0.15666555     0.36100
C2169       C  0.91120507  0.17659807  0.08337043     0.36100
C2170       C  0.87223974  0.17965162  0.08233138     0.36100
C2171       C  0.95909905  0.12046281  0.12413036    -0.21400
C2172       C  0.96135703  0.13673063  0.10569462    -0.21400
C2173       C  0.81356656  0.12804611  0.11385776    -0.21400
C2174       C  0.81586831  0.14468772  0.09599305    -0.21400
C2175       C  0.89290423  0.09720172  0.17925941    -0.22500
C2176       C  0.86822537  0.09845167  0.17765894    -0.22500
C2177       C  0.90602569  0.19711081  0.07034311    -0.22500
C2178       C  0.88135064  0.19910697  0.06977839    -0.22500
C2179       C  0.92663891  0.10956839  0.15281337    -0.17800
C2180       C  0.93466387  0.16748262  0.08743870    -0.17800
C2181       C  0.84745707  0.17386295  0.08443238    -0.17800
C2182       C  0.83973298  0.11430427  0.14717648    -0.17800
H2183       H  0.97292911  0.10815701  0.13009014     0.15100
H2184       H  0.97723330  0.13933761  0.09475281     0.15100
H2185       H  0.79769802  0.11716346  0.11702519     0.15100
H2186       H  0.80220413  0.14890877  0.08272261     0.15100
H2187       H  0.90299121  0.08845971  0.19341327     0.13400
H2188       H  0.85555838  0.09081607  0.19026526     0.13400
H2189       H  0.91869483  0.20934821  0.06207231     0.13400
H2190       H  0.87127774  0.21313893  0.06089929     0.13400
H2191       H  0.90729401  0.14689275  0.12490131     0.26600
H2192       H  0.86688034  0.15020071  0.12418453     0.26600
C2193       C  0.23791761  0.06358398  0.05510868    -0.05000
C2194       C  0.24492901  0.08766159  0.05170069    -0.32400
C2195       C  0.26509386  0.09732307  0.06368673     0.36800
C2196       C  0.27892557  0.08285931  0.07913528    -0.05300
C2197       C  0.27255105  0.05865928  0.08200281    -0.32300
C2198       C  0.25214980  0.04902012  0.07034428     0.36700
H2199       H  0.23429848  0.09931883  0.04032029     0.17100
O2200       O  0.27054936  0.12123244  0.06102743    -0.59800
H2201       H  0.28296421  0.04742150  0.09400057     0.17100
O2202       O  0.24647977  0.02527195  0.07383593    -0.59900
H2203       H  0.23817338  0.02478074  0.08959031     0.44100
H2204       H  0.28367990  0.12168300  0.04899153     0.44100
C2205       C  0.14799277  0.96588346  0.07617212    -0.05000
C2206       C  0.13477524  0.98061175  0.06058372    -0.32400
C2207       C  0.14574113  0.00027788  0.04925775     0.36800
C2208       C  0.17031338  0.00568955  0.05376460    -0.05300
C2209       C  0.18342402  0.99065695  0.06932291    -0.32300
C2210       C  0.17249667  0.97090817  0.08035362     0.36700
H2211       H  0.11577494  0.97703685  0.05750399     0.17100
O2212       O  0.13193886  0.01466395  0.03479429    -0.59800
H2213       H  0.20228881  0.99421363  0.07311287     0.17100
O2214       O  0.18562792  0.95719923  0.09605293    -0.59900
H2215       H  0.19421676  0.94536894  0.08581954     0.44100
H2216       H  0.13212109  0.00677528  0.01873562     0.44100
C2217       C  0.15570393  0.09142318  0.95028187    -0.05000
C2218       C  0.18069742  0.09147801  0.95436994    -0.32400
C2219       C  0.19057798  0.08021240  0.97461873     0.36800
C2220       C  0.17539498  0.06873814  0.99139393    -0.05300
C2221       C  0.15037740  0.06843627  0.98704965    -0.32300
C2222       C  0.14054169  0.07964512  0.96676152     0.36700
H2223       H  0.19258393  0.10044750  0.94185278     0.17100
O2224       O  0.21513678  0.08039287  0.97768014    -0.59800
H2225       H  0.13831822  0.05979350  0.99962891     0.17100
O2226       O  0.11600360  0.07944203  0.96345316    -0.59900
H2227       H  0.11286795  0.06659879  0.95135174     0.44100
H2228       H  0.22090656  0.06581445  0.96912951     0.44100
C2229       C  0.14914958  0.17180037  0.29162037    -0.05000
C2230       C  0.17434704  0.17130045  0.28958984    -0.32400
C2231       C  0.18601433  0.18236382  0.27020866     0.36800
C2232       C  0.17249530  0.19426130  0.25230292    -0.05300
C2233       C  0.14730455  0.19558157  0.25489885    -0.32300
C2234       C  0.13566567  0.18448463  0.27431032     0.36700
H2235       H  0.18501749  0.16194708  0.30292688     0.17100
O2236       O  0.21073045  0.18206591  0.26933314    -0.59800
H2237       H  0.13651148  0.20469313  0.24149445     0.17100
O2238       O  0.11102110  0.18566923  0.27591609    -0.59900
H2239       H  0.10783121  0.19804992  0.28841774     0.44100
H2240       H  0.21502837  0.16521664  0.26534395     0.44100
C2241       C  0.27782011  0.16836866  0.17011608    -0.05000
C2242       C  0.27166948  0.16370801  0.19404766    -0.32400
C2243       C  0.25153204  0.17465327  0.20457191     0.36800
C2244       C  0.23707394  0.19060266  0.19108805    -0.05300
C2245       C  0.24370539  0.19550653  0.16717107    -0.32300
C2246       C  0.26382258  0.18454613  0.15673307     0.36700
H2247       H  0.28223521  0.15110141  0.20443045     0.17100
O2248       O  0.24613543  0.16939302  0.22797802    -0.59800
H2249       H  0.23302572  0.20756360  0.15627364     0.17100
O2250       O  0.26923576  0.18913488  0.13315286    -0.59900
H2251       H  0.28156560  0.20210308  0.13375019     0.44100
H2252       H  0.25490072  0.18164463  0.23773888     0.44100
C2253       C  0.06020481  0.08326967  0.29626045    -0.05000
C2254       C  0.06661971  0.05984170  0.28958567    -0.32400
C2255       C  0.05471601  0.04801637  0.27057987     0.36800
C2256       C  0.03605163  0.05973456  0.25783489    -0.05300
C2257       C  0.02913944  0.08294598  0.26540201    -0.32300
C2258       C  0.04119139  0.09472632  0.28426963     0.36700
H2259       H  0.08131204  0.05093554  0.29879767     0.17100
O2260       O  0.06195594  0.02528835  0.26434536    -0.59800
H2261       H  0.01483172  0.09244864  0.25621520     0.17100
O2262       O  0.03446077  0.11757260  0.29073136    -0.59900
H2263       H  0.04413764  0.12837745  0.28040419     0.44100
H2264       H  0.05211280  0.01436015  0.27438139     0.44100
C2265       C  0.94358575  0.09458650  0.16689469    -0.05000
C2266       C  0.94421018  0.06965268  0.16303577    -0.32400
C2267       C  0.96060216  0.05530429  0.17566198     0.36800
C2268       C  0.97662101  0.06593801  0.19249412    -0.05300
C2269       C  0.97513177  0.09083899  0.19697129    -0.32300
C2270       C  0.95876977  0.10509368  0.18433649     0.36700
H2271       H  0.93207280  0.06136520  0.15003939     0.17100
O2272       O  0.96033768  0.03089540  0.17191893    -0.59800
H2273       H  0.98712381  0.09947062  0.20987173     0.17100
O2274       O  0.95800683  0.12935683  0.18884534    -0.59900
H2275       H  0.94479144  0.13151346  0.20061294     0.44100
H2276       H  0.96929286  0.02830051  0.15672684     0.44100
C2277       C  0.06023645  0.96358972  0.16521320    -0.05000
C2278       C  0.06295835  0.96558605  0.19023475    -0.32400
C2279       C  0.05112261  0.98370092  0.20316854     0.36800
C2280       C  0.03619494  0.00029890  0.19107264    -0.05300
C2281       C  0.03318275  0.99787989  0.16599655    -0.32300
C2282       C  0.04512581  0.97981035  0.15311263     0.36700
H2283       H  0.07457311  0.95318759  0.19972385     0.17100
O2284       O  0.05448520  0.98504374  0.22759371    -0.59800
H2285       H  0.02200146  0.01040514  0.15617702     0.17100
O2286       O  0.04240767  0.97851017  0.12859579    -0.59900
H2287       H  0.03006042  0.96583491  0.12575007     0.44100
H2288       H  0.04124648  0.97529488  0.23452157     0.44100
C2289       C  0.17639572  0.25502722  0.18709576    -0.05000
C2290       C  0.15542665  0.26632067  0.19577424    -0.32400
C2291       C  0.14584496  0.28655545  0.18426048     0.36800
C2292       C  0.15719403  0.29592233  0.16378076    -0.05300
C2293       C  0.17821123  0.28511084  0.15525235    -0.32300
C2294       C  0.18793613  0.26500654  0.16669670     0.36700
H2295       H  0.14620583  0.25934952  0.21138914     0.17100
O2296       O  0.12528740  0.29699103  0.19302300    -0.59800
H2297       H  0.18698421  0.29216645  0.13940055     0.17100
O2298       O  0.20847228  0.25508301  0.15731949    -0.59900
H2299       H  0.22197995  0.26419743  0.16486650     0.44100
H2300       H  0.11178270  0.28810180  0.18521252     0.44100
C2301       C  0.07882725  0.30238357  0.06560330    -0.05000
C2302       C  0.05366054  0.30078712  0.06740921    -0.32400
C2303       C  0.04085845  0.28254436  0.05536010     0.36800
C2304       C  0.05323070  0.26553542  0.04115378    -0.05300
C2305       C  0.07835839  0.26775554  0.03861798    -0.32300
C2306       C  0.09118861  0.28581042  0.05098479     0.36700
H2307       H  0.04399215  0.31342943  0.07867489     0.17100
O2308       O  0.01628242  0.28136668  0.05779787    -0.59800
H2309       H  0.08822621  0.25485991  0.02782766     0.17100
O2310       O  0.11581262  0.28699681  0.04894120    -0.59900
H2311       H  0.12210134  0.27476296  0.06022156     0.44100
H2312       H  0.00976438  0.29182738  0.04495993     0.44100
C2313       C  0.06924624  0.18037562  0.93748845    -0.05000
C2314       C  0.07494593  0.20439867  0.94277206    -0.32400
C2315       C  0.06403670  0.21636838  0.96213619     0.36800
C2316       C  0.04711052  0.20420434  0.97679517    -0.05300
C2317       C  0.04053532  0.18049136  0.97045906    -0.32300
C2318       C  0.05151456  0.16861107  0.95110760     0.36700
H2319       H  0.08867568  0.21357963  0.93245510     0.17100
O2320       O  0.07084353  0.23964134  0.96701952    -0.59800
H2321       H  0.02758020  0.17065907  0.98113773     0.17100
O2322       O  0.04579858  0.14500740  0.94647515    -0.59900
H2323       H  0.03343024  0.14548154  0.93353746     0.44100
H2324       H  0.05969641  0.24970859  0.95743505     0.44100
C2325       C  0.95510264  0.17813277  0.07355840    -0.05000
C2326       C  0.97230999  0.19249673  0.08545240    -0.32400
C2327       C  0.99091372  0.20376804  0.07270135     0.36800
C2328       C  0.99261621  0.20087383  0.04742690    -0.05300
C2329       C  0.97570776  0.18587857  0.03567167    -0.32300
C2330       C  0.95698947  0.17474587  0.04848827     0.36700
H2331       H  0.97113941  0.19518295  0.10473864     0.17100
O2332       O  0.00735977  0.21749830  0.08526506    -0.59800
H2333       H  0.97666520  0.18312769  0.01638664     0.17100
O2334       O  0.94072975  0.16034579  0.03643790    -0.59900
H2335       H  0.92972742  0.17155040  0.02802843     0.44100
H2336       H  0.02101424  0.20655746  0.08867535     0.44100
C2337       C  0.06597732  0.20298521  0.77316404    -0.05000
C2338       C  0.06052774  0.17853189  0.77608989    -0.32400
C2339       C  0.07032310  0.16572935  0.79543375     0.36800
C2340       C  0.08549392  0.17753394  0.81218295    -0.05300
C2341       C  0.09257823  0.20130948  0.80808071    -0.32300
C2342       C  0.08291755  0.21405361  0.78874621     0.36700
H2343       H  0.04695268  0.16999199  0.76478070     0.17100
O2344       O  0.06367610  0.14222090  0.79880308    -0.59800
H2345       H  0.10493137  0.21025084  0.82043002     0.17100
O2346       O  0.08861978  0.23794892  0.78623535    -0.59900
H2347       H  0.07898818  0.24652486  0.79856938     0.44100
H2348       H  0.07557033  0.13264776  0.78958750     0.44100
C2349       C  0.91776104  0.34285229  0.66996452    -0.05000
C2350       C  0.94159324  0.34985247  0.67465014    -0.32400
C2351       C  0.95426119  0.34021065  0.69411730     0.36800
C2352       C  0.94310158  0.32293737  0.70907747    -0.05300
C2353       C  0.91881285  0.31679138  0.70472660    -0.32300
C2354       C  0.90620332  0.32661730  0.68536985     0.36700
H2355       H  0.95034920  0.36288401  0.66317710     0.17100
O2356       O  0.97787874  0.34693369  0.69749083    -0.59800
H2357       H  0.90974540  0.30365741  0.71582894     0.17100
O2358       O  0.88254501  0.32025810  0.68160027    -0.59900
H2359       H  0.88297209  0.30717823  0.66938580     0.44100
H2360       H  0.97731716  0.36097106  0.70857871     0.44100
C2361       C  0.94008346  0.31530809  0.50651772    -0.05000
C2362       C  0.91562621  0.30972915  0.51049660    -0.32400
C2363       C  0.90274631  0.32079182  0.52908449     0.36800
C2364       C  0.91421087  0.33767434  0.54425748    -0.05300
C2365       C  0.93876553  0.34279867  0.54092905    -0.32300
C2366       C  0.95169125  0.33187471  0.52216910     0.36700
H2367       H  0.90620406  0.29712506  0.49880272     0.17100
O2368       O  0.87877870  0.31537381  0.53197085    -0.59800
H2369       H  0.94783303  0.35556880  0.55273453     0.17100
O2370       O  0.97577129  0.33701735  0.51974960    -0.59900
H2371       H  0.97640258  0.35281480  0.51160783     0.44100
H2372       H  0.87823445  0.30384368  0.54548638     0.44100
C2373       C  0.94410493  0.25072974  0.44529328    -0.05000
C2374       C  0.95695066  0.23853798  0.42712431    -0.32400
C2375       C  0.94671024  0.21887055  0.41479175     0.36800
C2376       C  0.92323177  0.21116607  0.42036532    -0.05300
C2377       C  0.91070260  0.22259125  0.43896142    -0.32300
C2378       C  0.92092953  0.24204940  0.45152734     0.36700
H2379       H  0.97481151  0.24454993  0.42204395     0.17100
O2380       O  0.95927028  0.20807897  0.39650769    -0.59800
H2381       H  0.89254519  0.21681816  0.44326771     0.17100
O2382       O  0.90740554  0.25324464  0.46885127    -0.59900
H2383       H  0.90935430  0.24329860  0.48346423     0.44100
H2384       H  0.96809963  0.19468318  0.40420124     0.44100
C2385       C  0.00245901  0.31796841  0.44270510    -0.05000
C2386       C  0.01713398  0.30478042  0.42680167    -0.32400
C2387       C  0.03634713  0.31573913  0.41475608     0.36800
C2388       C  0.04127695  0.34029646  0.41838378    -0.05300
C2389       C  0.02660488  0.35368106  0.43394397    -0.32300
C2390       C  0.00725929  0.34279784  0.44595976     0.36700
H2391       H  0.01377881  0.28581257  0.42364372     0.17100
O2392       O  0.04976130  0.30250424  0.39882832    -0.59800
H2393       H  0.03002736  0.37272471  0.43654956     0.17100
O2394       O  0.99294376  0.35676940  0.46039585    -0.59900
H2395       H  0.98011628  0.36294800  0.44961378     0.44100
H2396       H  0.06204506  0.29427568  0.40880182     0.44100
C2397       C  0.94197670  0.51052152  0.31043914    -0.05000
C2398       C  0.94646683  0.51348766  0.33528628    -0.32400
C2399       C  0.93491060  0.53154933  0.34869557     0.36800
C2400       C  0.91899384  0.54753586  0.33731024    -0.05300
C2401       C  0.91473664  0.54494942  0.31252116    -0.32300
C2402       C  0.92594820  0.52666195  0.29913163     0.36700
H2403       H  0.95859380  0.50142079  0.34455502     0.17100
O2404       O  0.93936127  0.53352671  0.37292612    -0.59800
H2405       H  0.90236758  0.55701578  0.30356728     0.17100
O2406       O  0.92102004  0.52481845  0.27499848    -0.59900
H2407       H  0.93386514  0.53427489  0.26702623     0.44100
H2408       H  0.92805117  0.52204174  0.38054799     0.44100
C2409       C  0.94337411  0.45161653  0.24244257    -0.05000
C2410       C  0.94931959  0.42785675  0.23582106    -0.32400
C2411       C  0.93831403  0.41649859  0.21599508     0.36800
C2412       C  0.92102273  0.42875066  0.20224346    -0.05300
C2413       C  0.91556218  0.45267136  0.20815978    -0.32300
C2414       C  0.92646973  0.46409059  0.22810364     0.36700
H2415       H  0.96218662  0.41773692  0.24635895     0.17100
O2416       O  0.94407484  0.39313452  0.21055878    -0.59800
H2417       H  0.90236659  0.46234065  0.19758133     0.17100
O2418       O  0.92077672  0.48756401  0.23307877    -0.59900
H2419       H  0.90504059  0.48688353  0.24145802     0.44100
H2420       H  0.95755247  0.39423382  0.19895216     0.44100
C2421       C  0.00709961  0.45021943  0.30514086    -0.05000
C2422       C  0.01694991  0.45969285  0.32665179    -0.32400
C2423       C  0.03603810  0.44826794  0.33845918     0.36800
C2424       C  0.04586030  0.42707013  0.32887133    -0.05300
C2425       C  0.03699539  0.41803833  0.30692863    -0.32300
C2426       C  0.01791087  0.42945985  0.29496315     0.36700
H2427       H  0.00952156  0.47577489  0.33477241     0.17100
O2428       O  0.04487428  0.45783647  0.35955785    -0.59800
H2429       H  0.04456210  0.40174717  0.29934487     0.17100
O2430       O  0.00958963  0.41962486  0.27378375    -0.59900
H2431       H  0.01946487  0.42718091  0.26104855     0.44100
H2432       H  0.03601274  0.44940706  0.37247998     0.44100
C2433       C  0.79657807  0.44456679  0.50644009    -0.05000
C2434       C  0.81241941  0.45736669  0.52179346    -0.32400
C2435       C  0.82414714  0.44598506  0.54092517     0.36800
C2436       C  0.82044900  0.42132432  0.54490653    -0.05300
C2437       C  0.80427448  0.40854546  0.53010299    -0.32300
C2438       C  0.79218314  0.41997684  0.51114299     0.36700
H2439       H  0.81604375  0.47626484  0.51880094     0.17100
O2440       O  0.84007844  0.45884059  0.55498754    -0.59800
H2441       H  0.80135014  0.38951331  0.53301757     0.17100
O2442       O  0.77722864  0.40655976  0.49656501    -0.59900
H2443       H  0.76215336  0.40451893  0.50587368     0.44100
H2444       H  0.83007942  0.46647302  0.56763369     0.44100
C2445       C  0.82681494  0.54628681  0.42265359    -0.05000
C2446       C  0.83902788  0.53107165  0.43848910    -0.32400
C2447       C  0.82686083  0.51234127  0.45001823     0.36800
C2448       C  0.80198263  0.50849572  0.44566210    -0.05300
C2449       C  0.78975495  0.52411759  0.43001361    -0.32300
C2450       C  0.80194357  0.54300590  0.41872923     0.36700
H2451       H  0.85817206  0.53359470  0.44169685     0.17100
O2452       O  0.83967154  0.49761542  0.46502927    -0.59800
H2453       H  0.77067756  0.52165610  0.42640071     0.17100
O2454       O  0.78962360  0.55768283  0.40325664    -0.59900
H2455       H  0.78153712  0.56969802  0.41369113     0.44100
H2456       H  0.84638872  0.48490633  0.45443405     0.44100
C2457       C  0.69849994  0.42902583  0.41166621    -0.05000
C2458       C  0.70640647  0.41730180  0.43243133    -0.32400
C2459       C  0.72486975  0.42713237  0.44674413     0.36800
C2460       C  0.73617255  0.44895085  0.44009174    -0.05300
C2461       C  0.72747517  0.46099535  0.41955771    -0.32300
C2462       C  0.70879510  0.45121301  0.40546947     0.36700
H2463       H  0.69845319  0.40020060  0.43733729     0.17100
O2464       O  0.73209554  0.41476412  0.46672915    -0.59800
H2465       H  0.73539208  0.47790925  0.41405524     0.17100
O2466       O  0.70086208  0.46328992  0.38552411    -0.59900
H2467       H  0.71228415  0.45894181  0.37254824     0.44100
H2468       H  0.72162280  0.42067466  0.47989920     0.44100
C2469       C  0.81328252  0.25583278  0.30590610    -0.05000
C2470       C  0.80512536  0.24817959  0.32859934    -0.32400
C2471       C  0.81642927  0.22921570  0.34070062     0.36800
C2472       C  0.83613034  0.21738676  0.33019666    -0.05300
C2473       C  0.84418745  0.22460862  0.30755651    -0.32300
C2474       C  0.83295606  0.24349308  0.29535811     0.36700
H2475       H  0.79005646  0.25702430  0.33719112     0.17100
O2476       O  0.80791880  0.22214417  0.36267372    -0.59800
H2477       H  0.85932231  0.21552387  0.29930182     0.17100
O2478       O  0.84156274  0.24966163  0.27316646    -0.59900
H2479       H  0.83239069  0.23948857  0.26155581     0.44100
H2480       H  0.81735431  0.23163497  0.37464273     0.44100
C2481       C  0.74844093  0.31724981  0.30314013    -0.05000
C2482       C  0.73440679  0.33304164  0.28919993    -0.32400
C2483       C  0.71429403  0.34478828  0.29894520     0.36800
C2484       C  0.70783114  0.34108575  0.32306207    -0.05300
C2485       C  0.72148098  0.32519303  0.33701299    -0.32300
C2486       C  0.74140994  0.31311084  0.32724326     0.36700
H2487       H  0.73905098  0.33643377  0.27062469     0.17100
O2488       O  0.70111324  0.36002067  0.28479131    -0.59800
H2489       H  0.71670180  0.32222963  0.35563853     0.17100
O2490       O  0.75433600  0.29802414  0.34178535    -0.59900
H2491       H  0.74546635  0.28249640  0.34125630     0.44100
H2492       H  0.70892053  0.37599315  0.28681254     0.44100
C2493       C  0.81215786  0.31606959  0.24059155    -0.05000
C2494       C  0.79949505  0.33322450  0.22698524    -0.32400
C2495       C  0.81003793  0.34419440  0.20691552     0.36800
C2496       C  0.83362036  0.33818749  0.19998575    -0.05300
C2497       C  0.84622826  0.32087321  0.21313409    -0.32300
C2498       C  0.83583187  0.30992125  0.23326191     0.36700
H2499       H  0.78142925  0.33847751  0.23207159     0.17100
O2500       O  0.79762151  0.36171080  0.19490512    -0.59800
H2501       H  0.86456701  0.31641155  0.20821473     0.17100
O2502       O  0.84938309  0.29374641  0.24592058    -0.59900
H2503       H  0.85819397  0.30347469  0.25817620     0.44100
H2504       H  0.78905424  0.35316154  0.18165385     0.44100
C2505       C  0.05940451  0.30450269  0.68915201    -0.05000
C2506       C  0.07473138  0.32192792  0.69963042    -0.32400
C2507       C  0.08540053  0.33984722  0.68570398     0.36800
C2508       C  0.08089848  0.34061703  0.66084135    -0.05300
C2509       C  0.06654787  0.32259658  0.65005012    -0.32300
C2510       C  0.05579587  0.30458349  0.66405074     0.36700
H2511       H  0.07768300  0.32221427  0.71892383     0.17100
O2512       O  0.10019331  0.35661083  0.69651553    -0.59800
H2513       H  0.06317075  0.32292498  0.63084033     0.17100
O2514       O  0.04024200  0.28847698  0.65334735    -0.59900
H2515       H  0.05050969  0.27487413  0.64812174     0.44100
H2516       H  0.08920292  0.36892610  0.70326584     0.44100
C2517       C  0.99513817  0.57083724  0.68406203    -0.05000
C2518       C  0.99048315  0.59506548  0.68984556    -0.32400
C2519       C  0.97096205  0.60717496  0.67951472     0.36800
C2520       C  0.95542318  0.59505580  0.66343228    -0.05300
C2521       C  0.95966081  0.57083503  0.65786211    -0.32300
C2522       C  0.97931258  0.55870502  0.66797897     0.36700
H2523       H  0.00226790  0.60487450  0.70207964     0.17100
O2524       O  0.96715469  0.63088547  0.68522626    -0.59800
H2525       H  0.94787615  0.56142941  0.64530762     0.17100
O2526       O  0.98283507  0.53504259  0.66189793    -0.59900
H2527       H  0.97408774  0.52572441  0.67427534     0.44100
H2528       H  0.97711199  0.64010742  0.67370777     0.44100
C2529       C  0.07586691  0.46585154  0.65879801    -0.05000
C2530       C  0.08130659  0.47031166  0.68305101    -0.32400
C2531       C  0.07146317  0.49019515  0.69505723     0.36800
C2532       C  0.05559447  0.50581650  0.68279295    -0.05300
C2533       C  0.04966215  0.50067179  0.65862891    -0.32300
C2534       C  0.05971942  0.48095100  0.64666835     0.36700
H2535       H  0.09381312  0.45874279  0.69247266     0.17100
O2536       O  0.07726107  0.49393603  0.71881626    -0.59800
H2537       H  0.03762760  0.51229551  0.64869645     0.17100
O2538       O  0.05435865  0.47703567  0.62283974    -0.59900
H2539       H  0.04040581  0.46581373  0.62280990     0.44100
H2540       H  0.09362490  0.50122479  0.71875049     0.44100
C2541       C  0.05793956  0.56774986  0.74706803    -0.05000
C2542       C  0.08272292  0.56429255  0.75124855    -0.32400
C2543       C  0.09433978  0.57540461  0.77083147     0.36800
C2544       C  0.08121882  0.59017372  0.78664405    -0.05300
C2545       C  0.05635409  0.59292988  0.78312398    -0.32300
C2546       C  0.04468720  0.58190254  0.76351470     0.36700
H2547       H  0.09328692  0.55346028  0.73896043     0.17100
O2548       O  0.11866074  0.57225626  0.77405065    -0.59800
H2549       H  0.04606029  0.60405025  0.79539039     0.17100
O2550       O  0.02022903  0.58460415  0.76095342    -0.59900
H2551       H  0.01807782  0.60054844  0.75337812     0.44100
H2552       H  0.12010091  0.55906815  0.78587766     0.44100
C2553       C  0.29682922  0.58561104  0.57596770    -0.05000
C2554       C  0.28561705  0.56488926  0.58476069    -0.32400
C2555       C  0.26555639  0.55483335  0.57292736     0.36800
C2556       C  0.25619075  0.56564767  0.55183211    -0.05300
C2557       C  0.26836979  0.58582239  0.54252445    -0.32300
C2558       C  0.28841103  0.59581264  0.55447495     0.36700
H2559       H  0.29197970  0.55695012  0.60135678     0.17100
O2560       O  0.25469149  0.53510653  0.58290218    -0.59800
H2561       H  0.26201294  0.59435230  0.52624557     0.17100
O2562       O  0.29944368  0.61581933  0.54523492    -0.59900
H2563       H  0.29219926  0.62963417  0.55391227     0.44100
H2564       H  0.26376156  0.52109579  0.57661342     0.44100
C2565       C  0.18754274  0.50864715  0.54935711    -0.05000
C2566       C  0.20055042  0.49210764  0.56339578    -0.32400
C2567       C  0.18901031  0.47251376  0.57420791     0.36800
C2568       C  0.16406445  0.46899301  0.57107418    -0.05300
C2569       C  0.15098882  0.48529472  0.55703799    -0.32300
C2570       C  0.16247874  0.50488169  0.54610614     0.36700
H2571       H  0.21976912  0.49442675  0.56621495     0.17100
O2572       O  0.20219752  0.45708022  0.58813988    -0.59800
H2573       H  0.13168696  0.48297062  0.55482223     0.17100
O2574       O  0.14875599  0.52080235  0.53328430    -0.59900
H2575       H  0.14723800  0.51362477  0.51695600     0.44100
H2576       H  0.20111806  0.46364977  0.60473438     0.44100
C2577       C  0.29596392  0.67413520  0.66500146    -0.05000
C2578       C  0.28525315  0.69348238  0.65307355    -0.32400
C2579       C  0.26558950  0.70567619  0.66314713     0.36800
C2580       C  0.25599601  0.69835431  0.68551221    -0.05300
C2581       C  0.26711716  0.67898991  0.69744479    -0.32300
C2582       C  0.28685772  0.66698327  0.68737449     0.36700
H2583       H  0.29198873  0.69893220  0.63566994     0.17100
O2584       O  0.25554152  0.72420320  0.65050694    -0.59800
H2585       H  0.26044803  0.67291218  0.71464755     0.17100
O2586       O  0.29703713  0.64811505  0.69943881    -0.59900
H2587       H  0.28866124  0.63355748  0.69315703     0.44100
H2588       H  0.26497053  0.73867815  0.65530112     0.44100
C2589       C  0.16936754  0.67882005  0.78807541    -0.05000
C2590       C  0.18388046  0.66476204  0.77300928    -0.32400
C2591       C  0.19606490  0.67501078  0.75356808     0.36800
C2592       C  0.19350514  0.69978754  0.74860215    -0.05300
C2593       C  0.17922625  0.71388400  0.76407182    -0.32300
C2594       C  0.16728756  0.70358838  0.78368334     0.36700
H2595       H  0.18544400  0.64561913  0.77614292     0.17100
O2596       O  0.20936405  0.66032411  0.73885690    -0.59800
H2597       H  0.17714441  0.73295611  0.76088094     0.17100
O2598       O  0.15336569  0.71779100  0.79827742    -0.59900
H2599       H  0.13702734  0.71733523  0.79093675     0.44100
H2600       H  0.22496756  0.65815434  0.74736096     0.44100
C2601       C  0.16908820  0.80219124  0.66541948    -0.05000
C2602       C  0.18494553  0.78823524  0.65167362    -0.32400
C2603       C  0.19733732  0.76883191  0.66186396     0.36800
C2604       C  0.19379366  0.76280155  0.68629175    -0.05300
C2605       C  0.17824448  0.77728641  0.70013464    -0.32300
C2606       C  0.16618024  0.79692679  0.68995270     0.36700
H2607       H  0.18747773  0.79224104  0.63280389     0.17100
O2608       O  0.21246812  0.75567093  0.64753062    -0.59800
H2609       H  0.17528255  0.77334064  0.71894781     0.17100
O2610       O  0.15093037  0.81038263  0.70390812    -0.59900
H2611       H  0.16133140  0.82282284  0.71160679     0.44100
H2612       H  0.20204859  0.74329771  0.63975108     0.44100
C2613       C  0.16733861  0.60157875  0.45379810    -0.05000
C2614       C  0.18861765  0.61050746  0.46439050    -0.32400
C2615       C  0.20014391  0.59808913  0.48308428     0.36800
C2616       C  0.19008914  0.57646916  0.49200392    -0.05300
C2617       C  0.16839644  0.56796862  0.48156781    -0.32300
C2618       C  0.15722836  0.58017336  0.46255662     0.36700
H2619       H  0.19676324  0.62684618  0.45761313     0.17100
O2620       O  0.22117473  0.60739419  0.49241400    -0.59800
H2621       H  0.16005204  0.55157152  0.48790653     0.17100
O2622       O  0.13618486  0.57125833  0.45283894    -0.59900
H2623       H  0.14096417  0.55703620  0.44313759     0.44100
H2624       H  0.23412612  0.60095636  0.48197723     0.44100
C2625       C  0.06094366  0.69963187  0.49404143    -0.05000
C2626       C  0.08607116  0.70256801  0.49244730    -0.32400
C2627       C  0.09888055  0.69404875  0.47255384     0.36800
C2628       C  0.08665059  0.68248012  0.45335897    -0.05300
C2629       C  0.06167461  0.67830406  0.45552094    -0.32300
C2630       C  0.04881643  0.68684874  0.47555671     0.36700
H2631       H  0.09592271  0.71199714  0.50654201     0.17100
O2632       O  0.12319478  0.69854184  0.47142627    -0.59800
H2633       H  0.05196047  0.66887451  0.44134080     0.17100
O2634       O  0.02433646  0.68335513  0.47636939    -0.59900
H2635       H  0.01726868  0.69788378  0.46892863     0.44100
H2636       H  0.13081746  0.68573737  0.48115158     0.44100
C2637       C  0.99331998  0.70350116  0.55249603    -0.05000
C2638       C  0.98764079  0.70898594  0.57658483    -0.32400
C2639       C  0.96762029  0.69856492  0.58773463     0.36800
C2640       C  0.95276838  0.68238756  0.57489062    -0.05300
C2641       C  0.95767226  0.67757589  0.55062140    -0.32300
C2642       C  0.97780007  0.68791786  0.53940629     0.36700
H2643       H  0.99914332  0.72087644  0.58712264     0.17100
O2644       O  0.96320793  0.70355064  0.61150951    -0.59800
H2645       H  0.94625842  0.66519284  0.54056179     0.17100
O2646       O  0.98186424  0.68296334  0.51557153    -0.59900
H2647       H  0.98920841  0.66673632  0.51525873     0.44100
H2648       H  0.95240932  0.71771513  0.61140011     0.44100
C2649       C  0.07937328  0.80495011  0.57771334    -0.05000
C2650       C  0.09260497  0.79141361  0.56112179    -0.32400
C2651       C  0.08226655  0.77148614  0.54945867     0.36800
C2652       C  0.05811203  0.76473650  0.55430836    -0.05300
C2653       C  0.04474955  0.77887346  0.57056521    -0.32300
C2654       C  0.05518557  0.79888619  0.58211486     0.36700
H2655       H  0.11131074  0.79593958  0.55773639     0.17100
O2656       O  0.09624455  0.75850989  0.53381148    -0.59800
H2657       H  0.02620575  0.77429708  0.57460674     0.17100
O2658       O  0.04201439  0.81174082  0.59854852    -0.59900
H2659       H  0.03198468  0.82280358  0.58884523     0.44100
H2660       H  0.10456746  0.74643515  0.54389648     0.44100
C2661       C  0.95751467  0.20991120  0.68110364    -0.05000
C2662       C  0.94027874  0.22201600  0.66710495    -0.32400
C2663       C  0.92152891  0.20942943  0.65557263     0.36800
C2664       C  0.91972775  0.18434464  0.65803209    -0.05300
C2665       C  0.93747117  0.17211141  0.67125758    -0.32300
C2666       C  0.95627946  0.18473345  0.68277205     0.36700
H2667       H  0.94069606  0.24147359  0.66610261     0.17100
O2668       O  0.90495237  0.22174434  0.64207101    -0.59800
H2669       H  0.93627808  0.15277482  0.67323340     0.17100
O2670       O  0.97194748  0.17261214  0.69744465    -0.59900
H2671       H  0.98383090  0.16515587  0.68644044     0.44100
H2672       H  0.89381201  0.22915513  0.65386469     0.44100
C2673       C  0.68959645  0.26289124  0.68916966    -0.05000
C2674       C  0.69856105  0.27130483  0.66707019    -0.32400
C2675       C  0.68714837  0.29004070  0.65476576     0.36800
C2676       C  0.66643932  0.30084300  0.66442391    -0.05300
C2677       C  0.65793479  0.29327195  0.68682407    -0.32300
C2678       C  0.66940886  0.27467339  0.69930617     0.36700
H2679       H  0.71414672  0.26298338  0.65887584     0.17100
O2680       O  0.69612256  0.29748281  0.63309210    -0.59800
H2681       H  0.64207018  0.30159685  0.69448359     0.17100
O2682       O  0.66032089  0.26793822  0.72114813    -0.59900
H2683       H  0.66930472  0.27775956  0.73319981     0.44100
H2684       H  0.68987033  0.28571840  0.62107220     0.44100
C2685       C  0.68783322  0.19944037  0.75112148    -0.05000
C2686       C  0.66771450  0.21107505  0.76132166    -0.32400
C2687       C  0.65530387  0.20122047  0.78081714     0.36800
C2688       C  0.66249429  0.17911839  0.79044912    -0.05300
C2689       C  0.68263217  0.16744517  0.78071600    -0.32300
C2690       C  0.69533158  0.17739509  0.76129034     0.36700
H2691       H  0.66142992  0.22802462  0.75424501     0.17100
O2692       O  0.63583424  0.21315328  0.79011403    -0.59800
H2693       H  0.68849529  0.15050136  0.78820264     0.17100
O2694       O  0.71510480  0.16546752  0.75266181    -0.59900
H2695       H  0.70851731  0.15247424  0.74218704     0.44100
H2696       H  0.64256609  0.22369646  0.80298181     0.44100
C2697       C  0.75313013  0.20109345  0.68933902    -0.05000
C2698       C  0.76622830  0.21492546  0.67263173    -0.32400
C2699       C  0.78602211  0.20532652  0.66034796     0.36800
C2700       C  0.79304639  0.18149515  0.66447517    -0.05300
C2701       C  0.78056642  0.16777886  0.68144449    -0.32300
C2702       C  0.76079719  0.17731883  0.69384268     0.36700
H2703       H  0.76095903  0.23322672  0.66875308     0.17100
O2704       O  0.79768609  0.21898909  0.64353543    -0.59800
H2705       H  0.78583658  0.14932950  0.68463617     0.17100
O2706       O  0.74886320  0.16296825  0.70985098    -0.59900
H2707       H  0.73763582  0.15306627  0.69992649     0.44100
H2708       H  0.81143072  0.22653875  0.65228080     0.44100
C2709       C  0.48418600  0.19458556  0.55615426    -0.05000
C2710       C  0.47198553  0.20714605  0.57451492    -0.32400
C2711       C  0.45284801  0.19649511  0.58696863     0.36800
C2712       C  0.44562781  0.17287394  0.58135122    -0.05300
C2713       C  0.45728731  0.16037768  0.56284399    -0.32300
C2714       C  0.47639845  0.17094931  0.55028083     0.36700
H2715       H  0.47741561  0.22525020  0.57948902     0.17100
O2716       O  0.44191014  0.20894866  0.60525306    -0.59800
H2717       H  0.45185647  0.14210919  0.55848048     0.17100
O2718       O  0.48753607  0.15773031  0.53266198    -0.59900
H2719       H  0.50004297  0.14827304  0.54115405     0.44100
H2720       H  0.42821303  0.21738529  0.59754141     0.44100
C2721       C  0.56925444  0.16772788  0.45519269    -0.05000
C2722       C  0.58219244  0.18513242  0.46828516    -0.32400
C2723       C  0.57131041  0.19799097  0.48702705     0.36800
C2724       C  0.54693613  0.19349014  0.49307814    -0.05300
C2725       C  0.53396131  0.17615681  0.47957312    -0.32300
C2726       C  0.54491141  0.16346679  0.46068942     0.36700
H2727       H  0.60096236  0.18855406  0.46410426     0.17100
O2728       O  0.58493597  0.21453586  0.49954642    -0.59800
H2729       H  0.51527723  0.17229299  0.48371005     0.17100
O2730       O  0.53193345  0.14639449  0.44819339    -0.59900
H2731       H  0.52468811  0.15506158  0.43442465     0.44100
H2732       H  0.59279528  0.20533850  0.51261766     0.44100
C2733       C  0.57281388  0.29512668  0.57932109    -0.05000
C2734       C  0.57498860  0.29183252  0.55438545    -0.32400
C2735       C  0.56275026  0.27303338  0.54249335     0.36800
C2736       C  0.54769990  0.25727466  0.55553243    -0.05300
C2737       C  0.54512449  0.26107234  0.58045768    -0.32300
C2738       C  0.55761533  0.27969090  0.59232597     0.36700
H2739       H  0.58645667  0.30376648  0.54414439     0.17100
O2740       O  0.56515128  0.27065432  0.51804022    -0.59800
H2741       H  0.53384662  0.24919538  0.59095604     0.17100
O2742       O  0.55524136  0.28236420  0.61674267    -0.59900
H2743       H  0.54328430  0.29539745  0.61890930     0.44100
H2744       H  0.58110597  0.26303975  0.51562761     0.44100
C2745       C  0.68478912  0.06321357  0.49730143    -0.05000
C2746       C  0.66850320  0.04921659  0.48350454    -0.32400
C2747       C  0.65627195  0.05902881  0.46375721     0.36800
C2748       C  0.66019370  0.08314769  0.45746069    -0.05300
C2749       C  0.67649711  0.09711901  0.47092590    -0.32300
C2750       C  0.68886419  0.08737854  0.49057775     0.36700
H2751       H  0.66508366  0.03061615  0.48808578     0.17100
O2752       O  0.64034197  0.04501481  0.45085249    -0.59800
H2753       H  0.67939964  0.11581090  0.46633488     0.17100
O2754       O  0.70400684  0.10205211  0.50368933    -0.59900
H2755       H  0.71945356  0.10205210  0.49476983     0.44100
H2756       H  0.62463640  0.04695532  0.45908738     0.44100
C2757       C  0.68671768  0.00119755  0.56032417    -0.05000
C2758       C  0.66332095  0.99400521  0.55315900    -0.32400
C2759       C  0.65179322  0.97438054  0.56382199     0.36800
C2760       C  0.66351131  0.96137508  0.58196633    -0.05300
C2761       C  0.68705754  0.96785238  0.58876701    -0.32300
C2762       C  0.69865294  0.98763652  0.57821649     0.36700
H2763       H  0.65356818  0.00393140  0.53956206     0.17100
O2764       O  0.62864483  0.96859482  0.55705847    -0.59800
H2765       H  0.69620907  0.95792354  0.60278044     0.17100
O2766       O  0.72167814  0.99333753  0.58543518    -0.59900
H2767       H  0.71977814  0.00304870  0.60034006     0.44100
H2768       H  0.63032380  0.95562960  0.54484420     0.44100
C2769       C  0.74920559  0.06578976  0.55906482    -0.05000
C2770       C  0.75424792  0.06382160  0.58380164    -0.32400
C2771       C  0.77387801  0.07612486  0.59426890     0.36800
C2772       C  0.78920708  0.09025462  0.57996318    -0.05300
C2773       C  0.78459898  0.09186326  0.55522732    -0.32300
C2774       C  0.76483636  0.07984804  0.54475553     0.36700
H2775       H  0.74259124  0.05322316  0.59521203     0.17100
O2776       O  0.77802482  0.07422921  0.61852717    -0.59800
H2777       H  0.79620038  0.10278443  0.54406005     0.17100
O2778       O  0.76102778  0.08205257  0.52047579    -0.59900
H2779       H  0.76862666  0.06766739  0.51314715     0.44100
H2780       H  0.76761556  0.08658584  0.62608480     0.44100
C2781       C  0.48912794  0.06490498  0.69618601    -0.05000
C2782       C  0.48363613  0.05923144  0.67201568    -0.32400
C2783       C  0.46452588  0.07043150  0.65996707     0.36800
C2784       C  0.45028560  0.08749867  0.67198587    -0.05300
C2785       C  0.45527090  0.09296159  0.69616103    -0.32300
C2786       C  0.47457125  0.08200326  0.70823565     0.36700
H2787       H  0.49445516  0.04636677  0.66216499     0.17100
O2788       O  0.46016054  0.06492933  0.63624815    -0.59800
H2789       H  0.44432748  0.10603637  0.70560378     0.17100
O2790       O  0.47869980  0.08790995  0.73190556    -0.59900
H2791       H  0.48837246  0.10295207  0.73154180     0.44100
H2792       H  0.44827522  0.05155384  0.63649781     0.44100
C2793       C  0.55143525  0.06523725  0.76018653    -0.05000
C2794       C  0.53763943  0.08075470  0.77474330    -0.32400
C2795       C  0.54832910  0.09386312  0.79366924     0.36800
C2796       C  0.57313620  0.09153404  0.79840688    -0.05300
C2797       C  0.58681011  0.07562862  0.78446005    -0.32300
C2798       C  0.57622046  0.06245633  0.76559168     0.36700
H2799       H  0.51857763  0.08313409  0.77116554     0.17100
O2800       O  0.53454266  0.10934837  0.80704343    -0.59800
H2801       H  0.60599164  0.07391461  0.78784550     0.17100
O2802       O  0.59068324  0.04814701  0.75164454    -0.59900
H2803       H  0.59294049  0.03321414  0.76102056     0.44100
H2804       H  0.53628714  0.12518681  0.79913755     0.44100
C2805       C  0.55344410  0.00344292  0.69557063    -0.05000
C2806       C  0.54856979  0.99851063  0.67113672    -0.32400
C2807       C  0.56000313  0.97954569  0.65908303     0.36800
C2808       C  0.57627922  0.96471357  0.67145286    -0.05300
C2809       C  0.58123220  0.96941645  0.69579211    -0.32300
C2810       C  0.57005407  0.98858242  0.70785993     0.36700
H2811       H  0.53613265  0.00963728  0.66112185     0.17100
O2812       O  0.55506761  0.97550484  0.63518287    -0.59800
H2813       H  0.59397445  0.95826690  0.70540511     0.17100
O2814       O  0.57560661  0.99255573  0.73162993    -0.59900
H2815       H  0.56384727  0.98273419  0.74072780     0.44100
H2816       H  0.56604477  0.98643487  0.62637302     0.44100
C2817       C  0.06986954  0.07930247  0.42121869    -0.05000
C2818       C  0.07119932  0.05422371  0.41960593    -0.32400
C2819       C  0.06094227  0.03979495  0.43729972     0.36800
C2820       C  0.04891131  0.05035195  0.45705208    -0.05300
C2821       C  0.04889518  0.07546465  0.45952484    -0.32300
C2822       C  0.05924132  0.08995869  0.44169522     0.36700
H2823       H  0.07986501  0.04581015  0.40429435     0.17100
O2824       O  0.06163569  0.01526857  0.43448264    -0.59800
H2825       H  0.03948232  0.08386760  0.47438300     0.17100
O2826       O  0.05831884  0.11449543  0.44407310    -0.59900
H2827       H  0.04299477  0.11924651  0.43619337     0.44100
H2828       H  0.07607321  0.01006395  0.44363513     0.44100
C2829       C  0.94955424  0.06236853  0.55066980    -0.05000
C2830       C  0.95092398  0.06355138  0.57583211    -0.32400
C2831       C  0.93404354  0.07708760  0.58886863     0.36800
C2832       C  0.91565044  0.08958678  0.57663497    -0.05300
C2833       C  0.91515862  0.08937015  0.55147160    -0.32300
C2834       C  0.93172683  0.07569445  0.53850895     0.36700
H2835       H  0.96410461  0.05287847  0.58540178     0.17100
O2836       O  0.93475236  0.07691221  0.61353361    -0.59800
H2837       H  0.90141965  0.09931949  0.54187933     0.17100
O2838       O  0.93010528  0.07498948  0.51385351    -0.59900
H2839       H  0.91651561  0.06387957  0.51014886     0.44100
H2840       H  0.94747997  0.08869568  0.61810268     0.44100
C2841       C  0.04357503  0.96401563  0.56457044    -0.05000
C2842       C  0.06863340  0.96485921  0.56124419    -0.32400
C2843       C  0.08362606  0.94796766  0.57245283     0.36800
C2844       C  0.07357447  0.93022878  0.58740454    -0.05300
C2845       C  0.04879271  0.93051907  0.59207892    -0.32300
C2846       C  0.03382130  0.94719411  0.58078186     0.36700
H2847       H  0.07634938  0.97727872  0.54844303     0.17100
O2848       O  0.10788798  0.94816987  0.56778775    -0.59800
H2849       H  0.04093915  0.91717604  0.60383473     0.17100
O2850       O  0.00938234  0.94580399  0.58431191    -0.59900
H2851       H  0.00612730  0.95685145  0.59798576     0.44100
H2852       H  0.11000510  0.93685096  0.55409409     0.44100
C2853       C  0.91508797  0.08485865  0.41620189    -0.05000
C2854       C  0.90010040  0.07100119  0.43100118    -0.32400
C2855       C  0.90893507  0.05037871  0.44251021     0.36800
C2856       C  0.93290728  0.04286532  0.43856726    -0.05300
C2857       C  0.94760481  0.05672402  0.42328275    -0.32300
C2858       C  0.93892429  0.07754627  0.41232621     0.36700
H2859       H  0.88152150  0.07629019  0.43371902     0.17100
O2860       O  0.89392589  0.03758665  0.45726420    -0.59800
H2861       H  0.96628806  0.05192361  0.42039690     0.17100
O2862       O  0.95392843  0.09078260  0.39796140    -0.59900
H2863       H  0.95206155  0.08369986  0.38162850     0.44100
H2864       H  0.89306249  0.04710808  0.47239264     0.44100
C2865       C  0.80481603  0.45477715  0.70568521    -0.05000
C2866       C  0.82112700  0.46575958  0.68984051    -0.32400
C2867       C  0.83280462  0.45230731  0.67214153     0.36800
C2868       C  0.82807418  0.42758273  0.66997191    -0.05300
C2869       C  0.81311944  0.41622879  0.68677317    -0.32300
C2870       C  0.80135624  0.42974000  0.70453350     0.36700
H2871       H  0.82363636  0.48510465  0.69025688     0.17100
O2872       O  0.84798425  0.46358923  0.65636478    -0.59800
H2873       H  0.80988845  0.39703196  0.68550248     0.17100
O2874       O  0.78515988  0.41865468  0.71941384    -0.59900
H2875       H  0.76965778  0.41855685  0.71041920     0.44100
H2876       H  0.86420568  0.46266316  0.66389501     0.44100
C2877       C  0.68947234  0.46889032  0.67112941    -0.05000
C2878       C  0.70365879  0.45072785  0.66050473    -0.32400
C2879       C  0.69305977  0.42983103  0.65089377     0.36800
C2880       C  0.66792390  0.42688951  0.65159164    -0.05300
C2881       C  0.65363267  0.44557464  0.66082679    -0.32300
C2882       C  0.66417510  0.46647585  0.67041708     0.36700
H2883       H  0.72316009  0.45207211  0.66072165     0.17100
O2884       O  0.70731430  0.41253863  0.64056400    -0.59800
H2885       H  0.63415309  0.44384254  0.66066941     0.17100
O2886       O  0.64959824  0.48410313  0.67962471    -0.59900
H2887       H  0.64569637  0.49455774  0.66577283     0.44100
H2888       H  0.71494332  0.40398684  0.65420253     0.44100
C2889       C  0.78772804  0.57183550  0.68431270    -0.05000
C2890       C  0.80244887  0.55974644  0.66759197    -0.32400
C2891       C  0.82303305  0.57065659  0.65828314     0.36800
C2892       C  0.82920762  0.59412725  0.66535214    -0.05300
C2893       C  0.81448491  0.60659792  0.68158624    -0.32300
C2894       C  0.79402461  0.59553620  0.69135715     0.36700
H2895       H  0.79848104  0.54140825  0.66212569     0.17100
O2896       O  0.83692528  0.55838583  0.64198979    -0.59800
H2897       H  0.81877270  0.62502975  0.68648339     0.17100
O2898       O  0.78030219  0.60810790  0.70756558    -0.59900
H2899       H  0.78900688  0.60683047  0.72314124     0.44100
H2900       H  0.82881133  0.56062061  0.62622472     0.44100
C2901       C  0.66182387  0.58641835  0.82727476    -0.05000
C2902       C  0.65745427  0.56203507  0.82243357    -0.32400
C2903       C  0.66749419  0.55091483  0.80214444     0.36800
C2904       C  0.68202392  0.56433410  0.78620582    -0.05300
C2905       C  0.68637919  0.58876276  0.79127352    -0.32300
C2906       C  0.67624105  0.59982753  0.81147162     0.36700
H2907       H  0.64603035  0.55168846  0.83430265     0.17100
O2908       O  0.66351762  0.52679098  0.79848468    -0.59800
H2909       H  0.69784737  0.59931382  0.77962808     0.17100
O2910       O  0.68061522  0.62377619  0.81580200    -0.59900
H2911       H  0.66899133  0.63246809  0.80544012     0.44100
H2912       H  0.67648436  0.51860841  0.80761745     0.44100
C2913       C  0.49449581  0.55717902  0.18239575    -0.05000
C2914       C  0.48020989  0.57376219  0.19513404    -0.32400
C2915       C  0.46086204  0.58535565  0.18397836     0.36800
C2916       C  0.45556397  0.58071157  0.15965657    -0.05300
C2917       C  0.46997720  0.56466855  0.14662722    -0.32300
C2918       C  0.48937096  0.55297564  0.15773734     0.36700
H2919       H  0.48379646  0.57759295  0.21395305     0.17100
O2920       O  0.44751316  0.60164047  0.19683357    -0.59800
H2921       H  0.46621395  0.56130777  0.12774718     0.17100
O2922       O  0.50323839  0.53770039  0.14420608    -0.59900
H2923       H  0.51683575  0.54770626  0.13839107     0.44100
H2924       H  0.43414403  0.59215093  0.20387162     0.44100
C2925       C  0.55227832  0.48989418  0.18749765    -0.05000
C2926       C  0.54045713  0.47815161  0.16818735    -0.32400
C2927       C  0.55098498  0.45840471  0.15660447     0.36800
C2928       C  0.57353200  0.44999010  0.16435686    -0.05300
C2929       C  0.58493279  0.46086994  0.18411406    -0.32300
C2930       C  0.57452617  0.48057788  0.19574822     0.36700
H2931       H  0.52328310  0.48463322  0.16157403     0.17100
O2932       O  0.53960340  0.44800732  0.13715726    -0.59800
H2933       H  0.60253978  0.45468976  0.18987301     0.17100
O2934       O  0.58712145  0.49141645  0.21413684    -0.59900
H2935       H  0.58470510  0.48086481  0.22823787     0.44100
H2936       H  0.54488838  0.45750673  0.12308587     0.44100
C2937       C  0.44908744  0.67108189  0.07535130    -0.05000
C2938       C  0.45023816  0.69626488  0.07571384    -0.32400
C2939       C  0.46922538  0.70842562  0.06448875     0.36800
C2940       C  0.48764767  0.69538714  0.05287318    -0.05300
C2941       C  0.48600898  0.67017671  0.05185480    -0.32300
C2942       C  0.46693579  0.65804853  0.06294228     0.36700
H2943       H  0.43664088  0.70650340  0.08519655     0.17100
O2944       O  0.46962523  0.73307486  0.06507242    -0.59800
H2945       H  0.49990556  0.65977493  0.04300676     0.17100
O2946       O  0.46633805  0.63338510  0.06234320    -0.59900
H2947       H  0.45634491  0.62915321  0.04807014     0.44100
H2948       H  0.46006983  0.73807236  0.05084231     0.44100
C2949       C  0.54740015  0.76138919  0.05471878    -0.05000
C2950       C  0.54516141  0.76438112  0.07974907    -0.32400
C2951       C  0.55677122  0.78342130  0.09176597     0.36800
C2952       C  0.57091825  0.79991304  0.07882662    -0.05300
C2953       C  0.57215311  0.79775386  0.05370573    -0.32300
C2954       C  0.56055335  0.77867600  0.04163192     0.36700
H2955       H  0.53509078  0.75143085  0.09019991     0.17100
O2956       O  0.55498751  0.78522631  0.11631667    -0.59800
H2957       H  0.58269108  0.81054110  0.04350731     0.17100
O2958       O  0.56180992  0.77734620  0.01701385    -0.59900
H2959       H  0.57806914  0.77089091  0.01349727     0.44100
H2960       H  0.54313664  0.79821326  0.11924104     0.44100
C2961       C  0.55184715  0.69837396  0.99179175    -0.05000
C2962       C  0.53951624  0.68123741  0.97749644    -0.32400
C2963       C  0.55073766  0.67024897  0.95778550     0.36800
C2964       C  0.57476976  0.67596367  0.95227804    -0.05300
C2965       C  0.58705441  0.69329104  0.96609046    -0.32300
C2966       C  0.57583893  0.70452118  0.98567224     0.36700
H2967       H  0.52109363  0.67624109  0.98160170     0.17100
O2968       O  0.53839297  0.65329711  0.94450811    -0.59800
H2969       H  0.60561964  0.69773630  0.96195587     0.17100
O2970       O  0.58876481  0.72104856  0.99894105    -0.59900
H2971       H  0.59769306  0.71151435  0.01105244     0.44100
H2972       H  0.53001238  0.66245786  0.93173567     0.44100
C2973       C  0.68742319  0.50117409  0.05550442    -0.05000
C2974       C  0.69200775  0.49652724  0.07997358    -0.32400
C2975       C  0.68037389  0.47753989  0.09177575     0.36800
C2976       C  0.66415106  0.46256829  0.07909460    -0.05300
C2977       C  0.65966291  0.46694085  0.05469962    -0.32300
C2978       C  0.67113023  0.48595162  0.04287781     0.36700
H2979       H  0.70434976  0.50787864  0.09014992     0.17100
O2980       O  0.68524915  0.47347321  0.11560937    -0.59800
H2981       H  0.64726661  0.45543426  0.04474981     0.17100
O2982       O  0.66637651  0.48926880  0.01890729    -0.59900
H2983       H  0.67795728  0.47877405  0.01031575     0.44100
H2984       H  0.67409231  0.48411562  0.12457489     0.44100
C2985       C  0.79089293  0.58688594  0.07776181    -0.05000
C2986       C  0.78610891  0.56252069  0.08211376    -0.32400
C2987       C  0.76708507  0.55050835  0.07018640     0.36800
C2988       C  0.75217005  0.56295752  0.05369699    -0.05300
C2989       C  0.75788710  0.58709026  0.04860563    -0.32300
C2990       C  0.77698022  0.59897061  0.06045705     0.36700
H2991       H  0.79681858  0.55293955  0.09525152     0.17100
O2992       O  0.76307042  0.52671156  0.07515901    -0.59800
H2993       H  0.74703846  0.59713216  0.03594941     0.17100
O2994       O  0.78136626  0.62273056  0.05564677    -0.59900
H2995       H  0.79427994  0.62264669  0.04336773     0.44100
H2996       H  0.77267842  0.51770178  0.06312390     0.44100
C2997       C  0.68595654  0.56384113  0.99282020    -0.05000
C2998       C  0.69449643  0.58596541  0.98394471    -0.32400
C2999       C  0.68277917  0.59755977  0.96483495     0.36800
C3000       C  0.66227110  0.58709590  0.95398388    -0.05300
C3001       C  0.65377227  0.56500807  0.96245365    -0.32300
C3002       C  0.66519109  0.55348922  0.98175390     0.36700
H3003       H  0.71014755  0.59457645  0.99202277     0.17100
O3004       O  0.69114106  0.61945898  0.95725716    -0.59800
H3005       H  0.63789233  0.55686046  0.95431241     0.17100
O3006       O  0.65583403  0.53203611  0.98943196    -0.59900
H3007       H  0.64255075  0.53643058  0.00049157     0.44100
H3008       H  0.70281298  0.61571899  0.94431593     0.44100
C3009       C  0.57021270  0.57648436  0.29192445    -0.05000
C3010       C  0.58320986  0.55826736  0.28045128    -0.32400
C3011       C  0.57349488  0.54602452  0.26053845     0.36800
C3012       C  0.55055436  0.55240721  0.25137388    -0.05300
C3013       C  0.53722364  0.57009602  0.26368273    -0.32300
C3014       C  0.54687362  0.58201225  0.28384354     0.36700
H3015       H  0.60121629  0.55389659  0.28665838     0.17100
O3016       O  0.58718361  0.52873306  0.24957236    -0.59800
H3017       H  0.51939888  0.57506422  0.25744888     0.17100
O3018       O  0.53359836  0.59937520  0.29528282    -0.59900
H3019       H  0.53673001  0.61437573  0.28625919     0.44100
H3020       H  0.58508089  0.51417292  0.25956032     0.44100
C3021       C  0.67872647  0.69062141  0.25257963    -0.05000
C3022       C  0.66418821  0.70407451  0.26834304    -0.32400
C3023       C  0.65232280  0.69301441  0.28754769     0.36800
C3024       C  0.65466361  0.66812559  0.29108446    -0.05300
C3025       C  0.66912769  0.65465194  0.27548576    -0.32300
C3026       C  0.68132462  0.66568818  0.25652225     0.36700
H3027       H  0.66207096  0.72325155  0.26583817     0.17100
O3028       O  0.63842734  0.70662354  0.30272394    -0.59800
H3029       H  0.67087729  0.63543046  0.27799841     0.17100
O3030       O  0.69482338  0.65169665  0.24132886    -0.59900
H3031       H  0.70996852  0.64842735  0.25027398     0.44100
H3032       H  0.62185494  0.70558377  0.29598517     0.44100
C3033       C  0.74447933  0.69359758  0.19297062    -0.05000
C3034       C  0.75310697  0.70244103  0.17092591    -0.32400
C3035       C  0.77279326  0.69176482  0.15944554     0.36800
C3036       C  0.78441696  0.67205945  0.16996452    -0.05300
C3037       C  0.77653164  0.66357421  0.19223337    -0.32300
C3038       C  0.75684423  0.67419778  0.20382388     0.36700
H3039       H  0.74431513  0.71740918  0.16220350     0.17100
O3040       O  0.78062854  0.70073514  0.13792499    -0.59800
H3041       H  0.78556104  0.64848930  0.20052962     0.17100
O3042       O  0.74978095  0.66517314  0.22557521    -0.59900
H3043       H  0.75888662  0.67467302  0.23778898     0.44100
H3044       H  0.77168312  0.69144752  0.12543418     0.44100
C3045       C  0.65960303  0.79464862  0.16757129    -0.05000
C3046       C  0.64516777  0.77929536  0.18136001    -0.32400
C3047       C  0.65521304  0.75961723  0.19337217     0.36800
C3048       C  0.68015280  0.75478658  0.19144503    -0.05300
C3049       C  0.69455639  0.77039715  0.17773187    -0.32300
C3050       C  0.68448709  0.79016179  0.16592590     0.36700
H3051       H  0.62594052  0.78246463  0.18257961     0.17100
O3052       O  0.64023562  0.74463004  0.20594757    -0.59800
H3053       H  0.71374754  0.76726491  0.17606360     0.17100
O3054       O  0.69908660  0.80492156  0.15267239    -0.59900
H3055       H  0.69830083  0.79838413  0.13603879     0.44100
H3056       H  0.63825551  0.75245828  0.22190237     0.44100
C3057       C  0.07656240  0.33606379  0.84151639    -0.05000
C3058       C  0.06969917  0.31264313  0.84759599    -0.32400
C3059       C  0.05109155  0.30091457  0.83494587     0.36800
C3060       C  0.03920896  0.31273308  0.81578794    -0.05300
C3061       C  0.04533585  0.33678525  0.81092584    -0.32300
C3062       C  0.06377739  0.34840548  0.82365605     0.36700
H3063       H  0.07895697  0.30339772  0.86201263     0.17100
O3064       O  0.04506817  0.27783095  0.84117076    -0.59800
H3065       H  0.03653369  0.34640500  0.79648279     0.17100
O3066       O  0.06979750  0.37162222  0.81797703    -0.59900
H3067       H  0.05929275  0.38182125  0.82817038     0.44100
H3068       H  0.05770979  0.26752903  0.83395263     0.44100
C3069       C  0.65870903  0.42269851  0.81247925    -0.05000
C3070       C  0.67798481  0.43420405  0.82450646    -0.32400
C3071       C  0.69595002  0.44633095  0.81164015     0.36800
C3072       C  0.69480038  0.44706617  0.78637270    -0.05300
C3073       C  0.67601678  0.43468070  0.77435904    -0.32300
C3074       C  0.65821279  0.42241403  0.78719336     0.36700
H3075       H  0.67873994  0.43424334  0.84398926     0.17100
O3076       O  0.71366336  0.45860252  0.82397759    -0.59800
H3077       H  0.67469664  0.43522207  0.75490667     0.17100
O3078       O  0.63998733  0.41084190  0.77490601    -0.59900
H3079       H  0.64520101  0.39384858  0.77364019     0.44100
H3080       H  0.70718520  0.47502800  0.82645532     0.44100
C3081       C  0.30336178  0.51333824  0.95026541    -0.05000
C3082       C  0.29519479  0.51907306  0.92692681    -0.32400
C3083       C  0.30618696  0.53731975  0.91360937     0.36800
C3084       C  0.32558070  0.55040826  0.92350354    -0.05300
C3085       C  0.33373875  0.54504240  0.94674341    -0.32300
C3086       C  0.32292865  0.52664002  0.96009383     0.36700
H3087       H  0.28025751  0.50933331  0.91877361     0.17100
O3088       O  0.29755371  0.54258386  0.89109739    -0.59800
H3089       H  0.34864941  0.55514299  0.95451976     0.17100
O3090       O  0.33134226  0.52228395  0.98288566    -0.59900
H3091       H  0.34613512  0.51257094  0.98066073     0.44100
H3092       H  0.30644433  0.53180826  0.87999422     0.44100
C3093       C  0.20094446  0.42875817  0.92884819    -0.05000
C3094       C  0.20460761  0.42493977  0.95352284    -0.32400
C3095       C  0.22356179  0.43650191  0.96589899     0.36800
C3096       C  0.23935136  0.45207904  0.95350104    -0.05300
C3097       C  0.23511371  0.45617424  0.92885173    -0.32300
C3098       C  0.21613212  0.44476476  0.91662944     0.36700
H3099       H  0.19292350  0.41266996  0.96310784     0.17100
O3100       O  0.22649861  0.43223635  0.98999023    -0.59800
H3101       H  0.24681653  0.46797418  0.91873633     0.17100
O3102       O  0.21298882  0.44876404  0.89249582    -0.59900
H3103       H  0.20292306  0.46342151  0.89153291     0.44100
H3104       H  0.21753696  0.44528006  0.99822846     0.44100
C3105       C  0.30099227  0.45701649  0.01893404    -0.05000
C3106       C  0.32352182  0.46623264  0.02662757    -0.32400
C3107       C  0.33610718  0.45588545  0.04581420     0.36800
C3108       C  0.32639512  0.43592577  0.05771492    -0.05300
C3109       C  0.30335480  0.42756908  0.05128841    -0.32300
C3110       C  0.29061651  0.43791810  0.03212133     0.36700
H3111       H  0.33193880  0.48104561  0.01727309     0.17100
O3112       O  0.35846208  0.46463539  0.05204164    -0.59800
H3113       H  0.29563070  0.41231972  0.06057073     0.17100
O3114       O  0.26819247  0.42900865  0.02640606    -0.59900
H3115       H  0.27118527  0.41415741  0.01691198     0.44100
H3116       H  0.35545799  0.47657046  0.06501742     0.44100
C3117       C  0.49356605  0.45234736  0.79993196    -0.05000
C3118       C  0.50039120  0.45796065  0.82378753    -0.32400
C3119       C  0.51977507  0.44625982  0.83497609     0.36800
C3120       C  0.53280196  0.42855147  0.82246341    -0.05300
C3121       C  0.52663578  0.42335638  0.79848641    -0.32300
C3122       C  0.50733279  0.43508849  0.78717280     0.36700
H3123       H  0.49038358  0.47114189  0.83407423     0.17100
O3124       O  0.52557306  0.45190458  0.85835843    -0.59800
H3125       H  0.53667378  0.40988613  0.78859558     0.17100
O3126       O  0.50205163  0.42929062  0.76370293    -0.59900
H3127       H  0.51096897  0.44123845  0.75397131     0.44100
H3128       H  0.53798458  0.46474663  0.85728608     0.44100
C3129       C  0.40820592  0.55330814  0.82868849    -0.05000
C3130       C  0.39723561  0.54381674  0.80795748    -0.32400
C3131       C  0.40812739  0.52520277  0.79484618     0.36800
C3132       C  0.43025245  0.51518328  0.80275478    -0.05300
C3133       C  0.44148203  0.52540525  0.82325760    -0.32300
C3134       C  0.43068760  0.54430676  0.83607058     0.36700
H3135       H  0.37998356  0.55075672  0.80203321     0.17100
O3136       O  0.39655322  0.51670459  0.77465712    -0.59800
H3137       H  0.45859505  0.51857967  0.82966179     0.17100
O3138       O  0.44219612  0.55384087  0.85587449    -0.59900
H3139       H  0.43635050  0.54426050  0.86966205     0.44100
H3140       H  0.40214040  0.52718492  0.76142263     0.44100
C3141       C  0.42862407  0.45264234  0.73837795    -0.05000
C3142       C  0.44087726  0.43461418  0.72541918    -0.32400
C3143       C  0.42981487  0.42249157  0.70612337     0.36800
C3144       C  0.40608236  0.42812853  0.69938177    -0.05300
C3145       C  0.39385578  0.44636456  0.71172590    -0.32300
C3146       C  0.40485594  0.45858415  0.73107265     0.36700
H3147       H  0.45904323  0.42954442  0.73043746     0.17100
O3148       O  0.44188984  0.40424541  0.69471961    -0.59800
H3149       H  0.37545805  0.45066633  0.70675432     0.17100
O3150       O  0.39186352  0.47581859  0.74297577    -0.59900
H3151       H  0.38310883  0.46708058  0.75576792     0.44100
H3152       H  0.44891805  0.41165500  0.68015933     0.44100
C3153       C  0.49748856  0.32225026  0.93892588    -0.05000
C3154       C  0.51033534  0.30794263  0.92235014    -0.32400
C3155       C  0.52970714  0.31740339  0.90924461     0.36800
C3156       C  0.53644925  0.34162952  0.91226539    -0.05300
C3157       C  0.52418065  0.35582923  0.92913048    -0.32300
C3158       C  0.50494171  0.34639354  0.94242370     0.36700
H3159       H  0.50525611  0.28933445  0.91929633     0.17100
O3160       O  0.54130748  0.30313679  0.89277775    -0.59800
H3161       H  0.52924247  0.37453143  0.93160498     0.17100
O3162       O  0.49328975  0.36120968  0.95832533    -0.59900
H3163       H  0.48032914  0.36894146  0.94880081     0.44100
H3164       H  0.55279494  0.29341848  0.90233163     0.44100
C3165       C  0.43574987  0.32523960  0.00389191    -0.05000
C3166       C  0.41822358  0.31277753  0.01732094    -0.32400
C3167       C  0.40735928  0.32332190  0.03750491     0.36800
C3168       C  0.41390599  0.34670416  0.04483985    -0.05300
C3169       C  0.43129183  0.35927590  0.03163787    -0.32300
C3170       C  0.44227114  0.34876831  0.01144233     0.36700
H3171       H  0.41279035  0.29471708  0.01220492     0.17100
O3172       O  0.39029467  0.31063068  0.04996538    -0.59800
H3173       H  0.43627219  0.37741692  0.03696916     0.17100
O3174       O  0.45875893  0.36205260  0.99887283    -0.59900
H3175       H  0.47420043  0.36016570  0.00773436     0.44100
H3176       H  0.37460934  0.31551266  0.04291928     0.44100
C3177       C  0.41229761  0.21837567  0.92243645    -0.05000
C3178       C  0.40557900  0.22619378  0.94543080    -0.32400
C3179       C  0.41651755  0.24646544  0.95600953     0.36800
C3180       C  0.43457752  0.25934554  0.94349120    -0.05300
C3181       C  0.44159656  0.25089081  0.92061860    -0.32300
C3182       C  0.43050457  0.23072417  0.91008498     0.36700
H3183       H  0.39144680  0.21679803  0.95499416     0.17100
O3184       O  0.40904998  0.25363402  0.97840630    -0.59800
H3185       H  0.45540119  0.26019943  0.91053641     0.17100
O3186       O  0.43748487  0.22322680  0.88762038    -0.59900
H3187       H  0.42641552  0.23141357  0.87628444     0.44100
H3188       H  0.42006929  0.24551828  0.98983945     0.44100
C3189       C  0.30152425  0.25307619  0.81083693    -0.05000
C3190       C  0.32541942  0.24667644  0.80529974    -0.32400
C3191       C  0.33675993  0.22734458  0.81682269     0.36800
C3192       C  0.32411627  0.21349392  0.83373460    -0.05300
C3193       C  0.30012067  0.21932917  0.83889070    -0.32300
C3194       C  0.28883777  0.23890189  0.82772130     0.36700
H3195       H  0.33569787  0.25717624  0.79257464     0.17100
O3196       O  0.36038924  0.22230855  0.81172819    -0.59800
H3197       H  0.29031547  0.20905806  0.85216789     0.17100
O3198       O  0.26550886  0.24416219  0.83382412    -0.59900
H3199       H  0.25537187  0.23537893  0.82188926     0.44100
H3200       H  0.36998208  0.23273019  0.82276948     0.44100
C3201       C  0.30048287  0.31476971  0.74636405    -0.05000
C3202       C  0.31812779  0.30193027  0.73341311    -0.32400
C3203       C  0.32885765  0.31161241  0.71273150     0.36800
C3204       C  0.32241956  0.33467294  0.70479049    -0.05300
C3205       C  0.30447116  0.34727279  0.71710975    -0.32300
C3206       C  0.29345063  0.33757495  0.73754800     0.36700
H3207       H  0.32383661  0.28434827  0.73938049     0.17100
O3208       O  0.34626649  0.29878039  0.70089639    -0.59800
H3209       H  0.29927046  0.36500401  0.71107568     0.17100
O3210       O  0.27595974  0.35079884  0.74876162    -0.59900
H3211       H  0.28480715  0.36310198  0.75839006     0.44100
H3212       H  0.33730610  0.28804963  0.68962953     0.44100
C3213       C  0.24135058  0.31855300  0.81329170    -0.05000
C3214       C  0.22764748  0.30582401  0.83032318    -0.32400
C3215       C  0.20866361  0.31687275  0.84272564     0.36800
C3216       C  0.20295478  0.34104938  0.83830035    -0.05300
C3217       C  0.21644813  0.35386282  0.82140974    -0.32300
C3218       C  0.23536327  0.34284666  0.80884673     0.36700
H3219       H  0.23163083  0.28718142  0.83411833     0.17100
O3220       O  0.19581866  0.30392234  0.85924165    -0.59800
H3221       H  0.21237794  0.37258727  0.81807056     0.17100
O3222       O  0.24843584  0.35637659  0.79302018    -0.59900
H3223       H  0.23796857  0.35789099  0.77858866     0.44100
H3224       H  0.20370354  0.30742971  0.87494341     0.44100
C3225       C  0.79588033  0.21000389  0.04010161    -0.05000
C3226       C  0.79345083  0.21097093  0.06515767    -0.32400
C3227       C  0.81040899  0.19960343  0.07989293     0.36800
C3228       C  0.82970230  0.18683270  0.06943769    -0.05300
C3229       C  0.83127737  0.18490691  0.04441188    -0.32300
C3230       C  0.81463415  0.19646174  0.02976638     0.36700
H3231       H  0.77928019  0.22160429  0.07326813     0.17100
O3232       O  0.80814530  0.20116560  0.10442094    -0.59800
H3233       H  0.84565867  0.17460758  0.03623180     0.17100
O3234       O  0.81734801  0.19520732  0.00526416    -0.59900
H3235       H  0.80756044  0.18111989  0.00005030     0.44100
H3236       H  0.81840487  0.21502106  0.10934098     0.44100
C3237       C  0.66387886  0.18765373  0.91647412    -0.05000
C3238       C  0.68371647  0.17544185  0.92610975    -0.32400
C3239       C  0.69802099  0.18627257  0.94390882     0.36800
C3240       C  0.69223377  0.20935349  0.95242620    -0.05300
C3241       C  0.67168181  0.22104895  0.94360559    -0.32300
C3242       C  0.65757393  0.21037856  0.92556578     0.36700
H3243       H  0.68845217  0.15778728  0.91929441     0.17100
O3244       O  0.71871388  0.17511287  0.95141150    -0.59800
H3245       H  0.66764405  0.23923457  0.94942190     0.17100
O3246       O  0.63793889  0.22235828  0.91663926    -0.59900
H3247       H  0.64410786  0.23156849  0.90273439     0.44100
H3248       H  0.71383751  0.16541648  0.96548874     0.44100
C3249       C  0.69599303  0.30700454  0.03910085    -0.05000
C3250       C  0.69734250  0.30483695  0.06414592    -0.32400
C3251       C  0.68420095  0.32041854  0.07886973     0.36800
C3252       C  0.66944638  0.33804661  0.06837953    -0.05300
C3253       C  0.66712907  0.33929717  0.04337544    -0.32300
C3254       C  0.68056493  0.32414460  0.02869825     0.36700
H3255       H  0.70953995  0.29201999  0.07224955     0.17100
O3256       O  0.68670839  0.31915880  0.10339437    -0.59800
H3257       H  0.65535706  0.35250989  0.03527360     0.17100
O3258       O  0.67868944  0.32625267  0.00415940    -0.59900
H3259       H  0.68845351  0.34062316  0.00002835     0.44100
H3260       H  0.67659089  0.30529887  0.10828917     0.44100
C3261       C  0.66309534  0.33802304  0.90170509    -0.05000
C3262       C  0.67333698  0.31689278  0.89263485    -0.32400
C3263       C  0.69463218  0.30774767  0.90257551     0.36800
C3264       C  0.70609769  0.31976393  0.92214370    -0.05300
C3265       C  0.69556243  0.34096947  0.93117255    -0.32300
C3266       C  0.67434110  0.35009782  0.92105533     0.36700
H3267       H  0.66502733  0.30774393  0.87741266     0.17100
O3268       O  0.70400880  0.28704208  0.89293193    -0.59800
H3269       H  0.70342833  0.35026698  0.94652726     0.17100
O3270       O  0.66452584  0.37073331  0.93037496    -0.59900
H3271       H  0.67071259  0.38388627  0.92012215     0.44100
H3272       H  0.69421843  0.27378441  0.89975387     0.44100
C3273       C  0.83108406  0.34448914  0.07306979    -0.05000
C3274       C  0.84543446  0.33111456  0.05714918    -0.32400
C3275       C  0.83578551  0.32176524  0.03563456     0.36800
C3276       C  0.81143236  0.32597361  0.02957921    -0.05300
C3277       C  0.79729141  0.33982473  0.04544564    -0.32300
C3278       C  0.80688549  0.34886415  0.06705606     0.36700
H3279       H  0.86432253  0.32826550  0.06128725     0.17100
O3280       O  0.85029533  0.30848718  0.02075122    -0.59800
H3281       H  0.77841187  0.34300186  0.04153666     0.17100
O3282       O  0.79271416  0.36264078  0.08181937    -0.59900
H3283       H  0.78555575  0.35118966  0.09339488     0.44100
H3284       H  0.85754436  0.32029745  0.00959693     0.44100
C3285       C  0.81905092  0.10176998  0.15834928    -0.05000
C3286       C  0.80973515  0.08088375  0.14752394    -0.32400
C3287       C  0.79032411  0.06860927  0.15777873     0.36800
C3288       C  0.78006447  0.07710679  0.17948589    -0.05300
C3289       C  0.78882671  0.09880739  0.18954880    -0.32300
C3290       C  0.80813093  0.11108300  0.17911513     0.36700
H3291       H  0.81776968  0.07394123  0.13116742     0.17100
O3292       O  0.78200171  0.04801590  0.14672793    -0.59800
H3293       H  0.78160863  0.10568635  0.20629992     0.17100
O3294       O  0.81695383  0.13155696  0.18996506    -0.59900
H3295       H  0.80936549  0.14502622  0.18116853     0.44100
H3296       H  0.79391197  0.03540714  0.15082164     0.44100
C3297       C  0.68455760  0.06524187  0.28903936    -0.05000
C3298       C  0.69083989  0.08834001  0.29760681    -0.32400
C3299       C  0.68015571  0.09785255  0.31832013     0.36800
C3300       C  0.66325548  0.08413748  0.33110431    -0.05300
C3301       C  0.65668055  0.06129334  0.32259489    -0.32300
C3302       C  0.66703036  0.05182928  0.30171577     0.36700
H3303       H  0.70435168  0.09897274  0.28845968     0.17100
O3304       O  0.68635317  0.12055342  0.32602435    -0.59800
H3305       H  0.64297822  0.05102157  0.33188433     0.17100
O3306       O  0.65997134  0.02934912  0.29408575    -0.59900
H3307       H  0.67005338  0.01798993  0.30339292     0.44100
H3308       H  0.67546514  0.13149504  0.31713228     0.44100
C3309       C  0.66836933  0.92077491  0.16580291    -0.05000
C3310       C  0.69212951  0.92614994  0.15941662    -0.32400
C3311       C  0.70374390  0.94655126  0.16879638     0.36800
C3312       C  0.69148740  0.96205729  0.18492029    -0.05300
C3313       C  0.66761375  0.95641614  0.19129806    -0.32300
C3314       C  0.65601083  0.93610574  0.18166746     0.36700
H3315       H  0.70149959  0.91474838  0.14666569     0.17100
O3316       O  0.72715374  0.95093555  0.16219376    -0.59800
H3317       H  0.65789386  0.96770387  0.20387333     0.17100
O3318       O  0.63254539  0.93133352  0.18779315    -0.59900
H3319       H  0.62263067  0.94102121  0.17659923     0.44100
H3320       H  0.73716729  0.94151257  0.17353602     0.44100
C3321       C  0.83418135  0.09164787  0.32276778    -0.05000
C3322       C  0.83390542  0.09336568  0.29764660    -0.32400
C3323       C  0.82086300  0.07681098  0.28366515     0.36800
C3324       C  0.80836983  0.05770571  0.29470875    -0.05300
C3325       C  0.80975514  0.05512163  0.31972020    -0.32300
C3326       C  0.82246076  0.07203213  0.33379226     0.36700
H3327       H  0.84329983  0.10800100  0.28890400     0.17100
O3328       O  0.82017330  0.07953787  0.25913807    -0.59800
H3329       H  0.79979945  0.04086976  0.32847322     0.17100
O3330       O  0.82218594  0.07009351  0.35838284    -0.59900
H3331       H  0.83330764  0.05670789  0.36215961     0.44100
H3332       H  0.80842689  0.09260621  0.25618012     0.44100
C3333       C  0.08010923  0.91765309  0.42889739    -0.05000
C3334       C  0.06706742  0.93463333  0.41576476    -0.32400
C3335       C  0.04553193  0.94414944  0.42465544     0.36800
C3336       C  0.03659126  0.93670955  0.44723147    -0.05300
C3337       C  0.04971126  0.91935495  0.46018593    -0.32300
C3338       C  0.07132027  0.90995721  0.45122405     0.36700
H3339       H  0.07346850  0.94025431  0.39828601     0.17100
O3340       O  0.03385348  0.96124875  0.41136400    -0.59800
H3341       H  0.04355493  0.91339064  0.47762609     0.17100
O3342       O  0.08332599  0.89266819  0.46397854    -0.59900
H3343       H  0.09299546  0.90163287  0.47616356     0.44100
H3344       H  0.02364912  0.95208525  0.39977343     0.44100
C3345       C  0.44541673  0.81992696  0.49871030    -0.05000
C3346       C  0.45490396  0.84168815  0.50803231    -0.32400
C3347       C  0.44327263  0.85418645  0.52662836     0.36800
C3348       C  0.42182159  0.84506934  0.53643928    -0.05300
C3349       C  0.41261802  0.82311967  0.52785235    -0.32300
C3350       C  0.42422703  0.81048237  0.50931598     0.36700
H3351       H  0.47125921  0.84934083  0.50070270     0.17100
O3352       O  0.45312579  0.87522872  0.53526202    -0.59800
H3353       H  0.39624051  0.81581044  0.53550997     0.17100
O3354       O  0.41429699  0.78918602  0.50147394    -0.59900
H3355       H  0.42044651  0.77686927  0.51273901     0.44100
H3356       H  0.44465261  0.88817589  0.52647786     0.44100
C3357       C  0.33496020  0.93609908  0.54034595    -0.05000
C3358       C  0.34750770  0.95151255  0.52493339    -0.32400
C3359       C  0.33546316  0.96379947  0.50651712     0.36800
C3360       C  0.31038235  0.96049783  0.50300279    -0.05300
C3361       C  0.29782693  0.94534414  0.51886643    -0.32300
C3362       C  0.30987880  0.93334866  0.53746008     0.36700
H3363       H  0.36684228  0.95371172  0.52696941     0.17100
O3364       O  0.34868476  0.97788826  0.49128101    -0.59800
H3365       H  0.27858715  0.94251891  0.51672235     0.17100
O3366       O  0.29719645  0.91814868  0.55209723    -0.59900
H3367       H  0.28925665  0.92874369  0.56407075     0.44100
H3368       H  0.35189138  0.99296508  0.50040962     0.44100
C3369       C  0.30561584  0.02037810  0.43732875    -0.05000
C3370       C  0.29843599  0.02433497  0.41330841    -0.32400
C3371       C  0.30880308  0.04278617  0.39973649     0.36800
C3372       C  0.32663166  0.05769555  0.41003599    -0.05300
C3373       C  0.33334157  0.05439975  0.43410974    -0.32300
C3374       C  0.32309616  0.03590534  0.44773708     0.36700
H3375       H  0.28507384  0.01279553  0.40477140     0.17100
O3376       O  0.30183307  0.04576033  0.37624108    -0.59800
H3377       H  0.34692832  0.06598657  0.44223626     0.17100
O3378       O  0.32998897  0.03353104  0.47132555    -0.59900
H3379       H  0.34631208  0.02633670  0.47077653     0.44100
H3380       H  0.28929850  0.05841901  0.37670221     0.44100
C3381       C  0.24387419  0.95675578  0.44384848    -0.05000
C3382       C  0.23832391  0.95934428  0.41926103    -0.32400
C3383       C  0.21967041  0.94601371  0.40851823     0.36800
C3384       C  0.20610454  0.92982284  0.42231063    -0.05300
C3385       C  0.21084694  0.92783050  0.44699535    -0.32300
C3386       C  0.22961625  0.94105646  0.45780539     0.36700
H3387       H  0.24890891  0.97122944  0.40808544     0.17100
O3388       O  0.21522378  0.94843800  0.38436069    -0.59800
H3389       H  0.20023576  0.91562257  0.45780642     0.17100
O3390       O  0.23353889  0.93881381  0.48207216    -0.59900
H3391       H  0.24219668  0.92336801  0.48396803     0.44100
H3392       H  0.20146966  0.95972236  0.38326563     0.44100
C3393       C  0.71234214  0.95204482  0.29853724    -0.05000
C3394       C  0.69724439  0.93533204  0.28671833    -0.32400
C3395       C  0.67942863  0.92286987  0.29924394     0.36800
C3396       C  0.67645969  0.92702684  0.32398021    -0.05300
C3397       C  0.69248617  0.94258019  0.33619972    -0.32300
C3398       C  0.71038129  0.95515131  0.32357925     0.36700
H3399       H  0.69835405  0.93300785  0.26737175     0.17100
O3400       O  0.66466831  0.90698736  0.28712858    -0.59800
H3401       H  0.69047127  0.94564996  0.35535349     0.17100
O3402       O  0.72425489  0.97198466  0.33541380    -0.59900
H3403       H  0.73794652  0.96285743  0.34228504     0.44100
H3404       H  0.65168932  0.91695533  0.28005606     0.44100
C3405       C  0.54683337  0.84386389  0.41126126    -0.05000
C3406       C  0.53385130  0.85621114  0.42896287    -0.32400
C3407       C  0.51463432  0.84510349  0.44095479     0.36800
C3408       C  0.50784539  0.82114162  0.43514415    -0.05300
C3409       C  0.52103587  0.80889070  0.41726407    -0.32300
C3410       C  0.54029911  0.82007318  0.40538889     0.36700
H3411       H  0.53854846  0.87466520  0.43337168     0.17100
O3412       O  0.50209311  0.85827510  0.45762562    -0.59800
H3413       H  0.51638945  0.79056109  0.41234215     0.17100
O3414       O  0.55258645  0.80764481  0.38796516    -0.59900
H3415       H  0.54526200  0.81271542  0.37250631     0.44100
H3416       H  0.51165022  0.85714955  0.47270558     0.44100
C3417       C  0.50963991  0.95565341  0.30190225    -0.05000
C3418       C  0.52271298  0.93789686  0.28929079    -0.32400
C3419       C  0.54256012  0.92632987  0.29982145     0.36800
C3420       C  0.54977650  0.93222740  0.32342164    -0.05300
C3421       C  0.53719571  0.95013050  0.33597331    -0.32300
C3422       C  0.51732795  0.96176801  0.32551996     0.36700
H3423       H  0.51741162  0.93265484  0.27121243     0.17100
O3424       O  0.55412480  0.90849133  0.28729706    -0.59800
H3425       H  0.54243404  0.95465189  0.35426828     0.17100
O3426       O  0.50534033  0.97869051  0.33886947    -0.59900
H3427       H  0.49365353  0.96947757  0.34866833     0.44100
H3428       H  0.56749903  0.91670428  0.27883544     0.44100
C3429       C  0.44806267  0.95475005  0.23699352    -0.05000
C3430       C  0.45649748  0.93204018  0.22945326    -0.32400
C3431       C  0.44605840  0.91995720  0.20971985     0.36800
C3432       C  0.42702459  0.93053041  0.19686465    -0.05300
C3433       C  0.41912123  0.95349310  0.20359922    -0.32300
C3434       C  0.42924746  0.96551176  0.22355201     0.36700
H3435       H  0.47078286  0.92317356  0.23929789     0.17100
O3436       O  0.45378244  0.89728800  0.20382557    -0.59800
H3437       H  0.40430639  0.96170030  0.19393223     0.17100
O3438       O  0.42040791  0.98768565  0.22974449    -0.59900
H3439       H  0.40566095  0.98437134  0.23921661     0.44100
H3440       H  0.46742683  0.89977366  0.19263702     0.44100
C3441       C  0.44387013  0.01676847  0.30138284    -0.05000
C3442       C  0.41974875  0.02157059  0.29486677    -0.32400
C3443       C  0.40686439  0.04041380  0.30566907     0.36800
C3444       C  0.41792458  0.05505736  0.32330988    -0.05300
C3445       C  0.44208977  0.05080473  0.32949529    -0.32300
C3446       C  0.45502032  0.03185780  0.31882230     0.36700
H3447       H  0.41059078  0.01043144  0.28158628     0.17100
O3448       O  0.38329511  0.04413930  0.29914315    -0.59800
H3449       H  0.45088443  0.06207657  0.34292023     0.17100
O3450       O  0.47871326  0.02869904  0.32518939    -0.59900
H3451       H  0.47827271  0.02084211  0.34114081     0.44100
H3452       H  0.38392171  0.05661981  0.28650684     0.44100
C3453       C  0.42133395  0.71665938  0.41393789    -0.05000
C3454       C  0.43929938  0.72911893  0.40141584    -0.32400
C3455       C  0.45162658  0.74860578  0.41208156     0.36800
C3456       C  0.44605878  0.75608517  0.43583037    -0.05300
C3457       C  0.42825404  0.74313349  0.44841231    -0.32300
C3458       C  0.41604245  0.72361849  0.43768897     0.36700
H3459       H  0.44342262  0.72400427  0.38304946     0.17100
O3460       O  0.46869814  0.76042940  0.39882068    -0.59800
H3461       H  0.42347939  0.74829377  0.46659248     0.17100
O3462       O  0.39818387  0.71211558  0.45019236    -0.59900
H3463       H  0.40624385  0.69834527  0.45805819     0.44100
H3464       H  0.45972678  0.77299063  0.38995701     0.44100
C3465       C  0.20897424  0.84076934  0.33372387    -0.05000
C3466       C  0.22033847  0.85397642  0.31557588    -0.32400
C3467       C  0.23951637  0.84417362  0.30231557     0.36800
C3468       C  0.24766300  0.82053212  0.30692305    -0.05300
C3469       C  0.23603049  0.80740770  0.32520436    -0.32300
C3470       C  0.21697106  0.81732842  0.33848232     0.36700
H3471       H  0.21449417  0.87215173  0.31189437     0.17100
O3472       O  0.25029093  0.85811664  0.28517775    -0.59800
H3473       H  0.24181579  0.78935627  0.32947895     0.17100
O3474       O  0.20683533  0.80428611  0.35670322    -0.59900
H3475       H  0.19354476  0.79499399  0.34900150     0.44100
H3476       H  0.26331081  0.86698920  0.29380209     0.44100
C3477       C  0.30954714  0.75685261  0.30169405    -0.05000
C3478       C  0.29673771  0.74265422  0.31823647    -0.32400
C3479       C  0.30766996  0.72303980  0.32961626     0.36800
C3480       C  0.33190206  0.71742508  0.32487970    -0.05300
C3481       C  0.34457826  0.73100877  0.30796305    -0.32300
C3482       C  0.33361061  0.75038627  0.29623287     0.36700
H3483       H  0.27824197  0.74693954  0.32267894     0.17100
O3484       O  0.29487930  0.71012758  0.34620333    -0.59800
H3485       H  0.36325386  0.72682790  0.30418011     0.17100
O3486       O  0.34711557  0.76358362  0.28045451    -0.59900
H3487       H  0.34586472  0.75482622  0.26488536     0.44100
H3488       H  0.28708884  0.69691321  0.33689453     0.44100
C3489       C  0.31046526  0.82272572  0.24246323    -0.05000
C3490       C  0.33399095  0.81567382  0.23597561    -0.32400
C3491       C  0.34626172  0.82668918  0.21699004     0.36800
C3492       C  0.33508248  0.84489965  0.20365370    -0.05300
C3493       C  0.31159099  0.85192413  0.20971751    -0.32300
C3494       C  0.29933917  0.84116448  0.22901130     0.36700
H3495       H  0.34318869  0.80168809  0.24582720     0.17100
O3496       O  0.36910682  0.81925173  0.21133495    -0.59800
H3497       H  0.30278009  0.86593181  0.19952188     0.17100
O3498       O  0.27629302  0.84839096  0.23404677    -0.59900
H3499       H  0.27815166  0.86379038  0.24299517     0.44100
H3500       H  0.38005891  0.83027967  0.22032910     0.44100
C3501       C  0.44950111  0.05973296  0.06891480    -0.05000
C3502       C  0.44210908  0.08350517  0.06461361    -0.32400
C3503       C  0.42077517  0.09249290  0.07451820     0.36800
C3504       C  0.40613335  0.07771989  0.08883019    -0.05300
C3505       C  0.41340732  0.05413929  0.09351056    -0.32300
C3506       C  0.43479565  0.04503763  0.08366163     0.36700
H3507       H  0.45267618  0.09515618  0.05318262     0.17100
O3508       O  0.41424332  0.11580139  0.07002835    -0.59800
H3509       H  0.40263464  0.04287689  0.10514926     0.17100
O3510       O  0.44099878  0.02171946  0.08855420    -0.59900
H3511       H  0.43157485  0.01174265  0.07696530     0.44100
H3512       H  0.42194952  0.12548483  0.08303137     0.44100
C3513       C  0.55661086  0.07941071  0.96591077    -0.05000
C3514       C  0.57978103  0.07312722  0.95779420    -0.32400
C3515       C  0.58978304  0.08401714  0.93748492     0.36800
C3516       C  0.57656326  0.10125857  0.92467147    -0.05300
C3517       C  0.55385085  0.10820411  0.93300929    -0.32300
C3518       C  0.54378870  0.09743974  0.95336389     0.36700
H3519       H  0.58991810  0.05917057  0.96676357     0.17100
O3520       O  0.61224813  0.07722561  0.92986117    -0.59800
H3521       H  0.54380726  0.12190584  0.92354551     0.17100
O3522       O  0.52098658  0.10403364  0.96014685    -0.59900
H3523       H  0.50993616  0.09389896  0.95024610     0.44100
H3524       H  0.62356662  0.08887488  0.93750960     0.44100
C3525       C  0.58174070  0.92611853  0.07919279    -0.05000
C3526       C  0.56980589  0.94294696  0.09373870    -0.32400
C3527       C  0.56081468  0.96424253  0.08399800     0.36800
C3528       C  0.56353179  0.96890580  0.05924632    -0.05300
C3529       C  0.57642218  0.95240222  0.04496372    -0.32300
C3530       C  0.58552007  0.93118457  0.05480317     0.36700
H3531       H  0.56768454  0.93960378  0.11279692     0.17100
O3532       O  0.54894709  0.98010557  0.09871967    -0.59800
H3533       H  0.57853110  0.95536062  0.02584357     0.17100
O3534       O  0.59794721  0.91541679  0.04045549    -0.59900
H3535       H  0.61497393  0.92092491  0.04124375     0.44100
H3536       H  0.56176831  0.99047359  0.10582507     0.44100
C3537       C  0.42167761  0.92426656  0.07082514    -0.05000
C3538       C  0.44113749  0.91358206  0.05882320    -0.32400
C3539       C  0.45313662  0.92595672  0.04049871     0.36800
C3540       C  0.44535499  0.94902662  0.03376953    -0.05300
C3541       C  0.42481841  0.95883550  0.04460382    -0.32300
C3542       C  0.41315549  0.94673551  0.06320093     0.36700
H3543       H  0.44758274  0.89610198  0.06435450     0.17100
O3544       O  0.47359872  0.91628943  0.03068420    -0.59800
H3545       H  0.41914034  0.97690450  0.04016718     0.17100
O3546       O  0.39389020  0.95730164  0.07439589    -0.59900
H3547       H  0.40103470  0.96754700  0.08728683     0.44100
H3548       H  0.46845095  0.90962341  0.01486650     0.44100
C3549       C  0.41427496  0.09274776  0.92728297    -0.05000
C3550       C  0.42683808  0.07448160  0.91505970    -0.32400
C3551       C  0.44027386  0.05743572  0.92784159     0.36800
C3552       C  0.44103475  0.05853238  0.95310659    -0.05300
C3553       C  0.42770491  0.07627803  0.96522708    -0.32300
C3554       C  0.41425409  0.09313212  0.95254257     0.36700
H3555       H  0.42672689  0.07388776  0.89557164     0.17100
O3556       O  0.45354872  0.04068120  0.91552151    -0.59800
H3557       H  0.42823792  0.07745807  0.98470210     0.17100
O3558       O  0.40172714  0.11040025  0.96495025    -0.59900
H3559       H  0.38584078  0.10297632  0.96842940     0.44100
H3560       H  0.46891127  0.04892171  0.91155564     0.44100
C3561       C  0.04772495  0.80371224  0.19903017    -0.05000
C3562       C  0.06339530  0.82101310  0.20916528    -0.32400
C3563       C  0.07418730  0.83849204  0.19490596     0.36800
C3564       C  0.06924170  0.83902548  0.17014180    -0.05300
C3565       C  0.05467148  0.82104588  0.15965072    -0.32300
C3566       C  0.04376899  0.80346597  0.17399397     0.36700
H3567       H  0.06648171  0.82156958  0.22843737     0.17100
O3568       O  0.08887969  0.85551922  0.20542529    -0.59800
H3569       H  0.05114874  0.82116220  0.14046072     0.17100
O3570       O  0.02819424  0.78714104  0.16363868    -0.59900
H3571       H  0.01249947  0.79556633  0.16253562     0.44100
H3572       H  0.10549923  0.84933855  0.20337510     0.44100
C3573       C  0.93399181  0.71461580  0.31594414    -0.05000
C3574       C  0.94188008  0.70738298  0.33889478    -0.32400
C3575       C  0.93196855  0.68703418  0.34993450     0.36800
C3576       C  0.91419049  0.67332904  0.33791968    -0.05300
C3577       C  0.90631647  0.68036610  0.31508276    -0.32300
C3578       C  0.91580085  0.70092120  0.30419834     0.36700
H3579       H  0.95601456  0.71733602  0.34816982     0.17100
O3580       O  0.93950937  0.68084637  0.37259145    -0.59800
H3581       H  0.89239616  0.67006606  0.30585051     0.17100
O3582       O  0.90807204  0.70660711  0.28147334    -0.59900
H3583       H  0.89337681  0.71642027  0.28386908     0.44100
H3584       H  0.95251758  0.66892500  0.37006052     0.44100
C3585       C  0.94705121  0.70332644  0.20086003    -0.05000
C3586       C  0.92988868  0.68905190  0.21267744    -0.32400
C3587       C  0.91190762  0.67679893  0.19978345     0.36800
C3588       C  0.91066733  0.67893908  0.17465288    -0.05300
C3589       C  0.92843649  0.69241656  0.16266084    -0.32300
C3590       C  0.94671349  0.70442768  0.17561663     0.36700
H3591       H  0.92995974  0.68805951  0.23215179     0.17100
O3592       O  0.89581110  0.66248256  0.21179169    -0.59800
H3593       H  0.92795781  0.69373936  0.14322547     0.17100
O3594       O  0.96303498  0.71847167  0.16363279    -0.59900
H3595       H  0.97606760  0.70733868  0.15872770     0.44100
H3596       H  0.88486986  0.67371759  0.22029270     0.44100
C3597       C  0.03951497  0.81331819  0.32028602    -0.05000
C3598       C  0.04704638  0.83666511  0.31404353    -0.32400
C3599       C  0.06804769  0.84675593  0.32390721     0.36800
C3600       C  0.08213862  0.83349026  0.34009764    -0.05300
C3601       C  0.07463697  0.81044764  0.34678708    -0.32300
C3602       C  0.05353022  0.80030708  0.33710034     0.36700
H3603       H  0.03695306  0.84702409  0.30102633     0.17100
O3604       O  0.07478172  0.86959839  0.31754095    -0.59800
H3605       H  0.08494215  0.80051355  0.35998543     0.17100
O3606       O  0.04692341  0.77764025  0.34417036    -0.59900
H3607       H  0.05706409  0.76652909  0.33456523     0.44100
H3608       H  0.06695190  0.88033661  0.32946228     0.44100
C3609       C  0.05260083  0.70258039  0.28575646    -0.05000
C3610       C  0.04347140  0.68180916  0.29668412    -0.32400
C3611       C  0.05537339  0.67158180  0.31629166     0.36800
C3612       C  0.07688926  0.68191460  0.32500466    -0.05300
C3613       C  0.08683448  0.70185890  0.31327121    -0.32300
C3614       C  0.07473844  0.71229749  0.29380985     0.36700
H3615       H  0.02596193  0.67476762  0.29135540     0.17100
O3616       O  0.04548776  0.65192552  0.32733948    -0.59800
H3617       H  0.10368586  0.70962435  0.31960779     0.17100
O3618       O  0.08335778  0.73338233  0.28442983    -0.59900
H3619       H  0.09273550  0.72851966  0.27006859     0.44100
H3620       H  0.03516250  0.65859390  0.34026951     0.44100
C3621       C  0.79223163  0.70627898  0.44175329    -0.05000
C3622       C  0.78153943  0.68634055  0.43006175    -0.32400
C3623       C  0.79551732  0.66903832  0.41847597     0.36800
C3624       C  0.82076912  0.67115873  0.41864727    -0.05300
C3625       C  0.83154334  0.69165958  0.42923590    -0.32300
C3626       C  0.81744103  0.70916839  0.44080829     0.36700
H3627       H  0.76215495  0.68375794  0.43052967     0.17100
O3628       O  0.78434899  0.64971795  0.40762602    -0.59800
H3629       H  0.85098719  0.69369040  0.42912655     0.17100
O3630       O  0.82852953  0.72826306  0.45211099    -0.59900
H3631       H  0.83286634  0.72236816  0.46835938     0.44100
H3632       H  0.78272663  0.65416569  0.39045212     0.44100
C3633       C  0.70552500  0.80763323  0.43453321    -0.05000
C3634       C  0.70768481  0.83270191  0.43644462    -0.32400
C3635       C  0.69124867  0.84766920  0.42449530     0.36800
C3636       C  0.67260538  0.83753165  0.41026765    -0.05300
C3637       C  0.67145553  0.81253725  0.40721956    -0.32300
C3638       C  0.68767512  0.79763487  0.41923307     0.36700
H3639       H  0.72089415  0.84061126  0.44860276     0.17100
O3640       O  0.69289185  0.87210491  0.42760470    -0.59800
H3641       H  0.65741721  0.80455033  0.39607544     0.17100
O3642       O  0.68485250  0.77316630  0.41730845    -0.59900
H3643       H  0.69738339  0.76787941  0.40578364     0.44100
H3644       H  0.68242437  0.87580096  0.44155313     0.44100
C3645       C  0.67628675  0.79532173  0.55673581    -0.05000
C3646       C  0.68860666  0.80705058  0.57570034    -0.32400
C3647       C  0.67868988  0.82707040  0.58712972     0.36800
C3648       C  0.65592746  0.83542366  0.58004428    -0.05300
C3649       C  0.64313353  0.82341628  0.56171260    -0.32300
C3650       C  0.65322068  0.80355079  0.54992349     0.36700
H3651       H  0.70650517  0.80137272  0.58105512     0.17100
O3652       O  0.69116028  0.83816070  0.60550977    -0.59800
H3653       H  0.62532032  0.82951641  0.55655974     0.17100
O3654       O  0.64057484  0.79260517  0.53158371    -0.59900
H3655       H  0.63143566  0.77940969  0.53931589     0.44100
H3656       H  0.70068622  0.85104598  0.59771572     0.44100
C3657       C  0.67286918  0.69383924  0.45767799    -0.05000
C3658       C  0.68068996  0.67073566  0.45080502    -0.32400
C3659       C  0.67081121  0.65910921  0.43069350     0.36800
C3660       C  0.65306583  0.67060733  0.41694326    -0.05300
C3661       C  0.64452125  0.69315783  0.42406694    -0.32300
C3662       C  0.65412688  0.70476711  0.44434831     0.36700
H3663       H  0.69511854  0.66191738  0.46049487     0.17100
O3664       O  0.67887520  0.63667799  0.42431406    -0.59800
H3665       H  0.63007292  0.70158898  0.41404337     0.17100
O3666       O  0.64511442  0.72680250  0.45083863    -0.59900
H3667       H  0.65246402  0.73840662  0.43952838     0.44100
H3668       H  0.66880653  0.62529155  0.43360097     0.44100
C3669       C  0.78248726  0.69482387  0.55620299    -0.05000
C3670       C  0.79639921  0.67824021  0.54301120    -0.32400
C3671       C  0.81789071  0.66916799  0.55241433     0.36800
C3672       C  0.82579355  0.67656144  0.57532206    -0.05300
C3673       C  0.81169469  0.69245815  0.58888794    -0.32300
C3674       C  0.79026765  0.70175302  0.57946478     0.36700
H3675       H  0.79109709  0.67286684  0.52496201     0.17100
O3676       O  0.83101698  0.65300497  0.53917157    -0.59800
H3677       H  0.81722501  0.69742217  0.60699089     0.17100
O3678       O  0.77692181  0.71727520  0.59326207    -0.59900
H3679       H  0.78547524  0.73295261  0.59242798     0.44100
H3680       H  0.82518294  0.63694109  0.54422640     0.44100
C3681       C  0.19756100  0.06297395  0.79186293    -0.05000
C3682       C  0.20958271  0.07756691  0.80885414    -0.32400
C3683       C  0.19663326  0.09125328  0.82540232     0.36800
C3684       C  0.17134408  0.09037244  0.82502892    -0.05300
C3685       C  0.15929053  0.07692994  0.80709610    -0.32300
C3686       C  0.17230282  0.06326678  0.79045290     0.36700
H3687       H  0.22910845  0.07732580  0.81009662     0.17100
O3688       O  0.20872985  0.10526095  0.84197448    -0.59800
H3689       H  0.13975341  0.07653753  0.80650699     0.17100
O3690       O  0.16022211  0.04870833  0.77438538    -0.59900
H3691       H  0.15799369  0.05866762  0.75982549     0.44100
H3692       H  0.21487592  0.09392104  0.85423074     0.44100
C3693       C  0.19013895  0.95998227  0.70261663    -0.05000
C3694       C  0.19031580  0.96259178  0.67757874    -0.32400
C3695       C  0.17764540  0.94625690  0.66293231     0.36800
C3696       C  0.16453248  0.92735498  0.67348232    -0.05300
C3697       C  0.16309894  0.92578299  0.69853343    -0.32300
C3698       C  0.17608534  0.94172355  0.71311264     0.36700
H3699       H  0.20152842  0.97623145  0.66935950     0.17100
O3700       O  0.17937069  0.94790419  0.63838962    -0.59800
H3701       H  0.15263604  0.91155259  0.70674226     0.17100
O3702       O  0.17546334  0.93904311  0.73764225    -0.59900
H3703       H  0.18608864  0.92517781  0.74112890     0.44100
H3704       H  0.16799887  0.96080718  0.63377660     0.44100
C3705       C  0.28970725  0.06053090  0.70223056    -0.05000
C3706       C  0.30651278  0.07579489  0.71367185    -0.32400
C3707       C  0.32373372  0.08822217  0.70038602     0.36800
C3708       C  0.32434096  0.08543338  0.67528312    -0.05300
C3709       C  0.30672966  0.07120410  0.66363917    -0.32300
C3710       C  0.28933159  0.05884074  0.67699520     0.36700
H3711       H  0.30696744  0.07721866  0.73313390     0.17100
O3712       O  0.34000135  0.10297571  0.71201119    -0.59800
H3713       H  0.30689256  0.06927242  0.64422904     0.17100
O3714       O  0.27347541  0.04363541  0.66543317    -0.59900
H3715       H  0.25935121  0.05374124  0.66140364     0.44100
H3716       H  0.35187839  0.09204185  0.71955724     0.44100
C3717       C  0.31143347  0.94693643  0.70794103    -0.05000
C3718       C  0.33395851  0.95647769  0.70112767    -0.32400
C3719       C  0.34573184  0.94811158  0.68044612     0.36800
C3720       C  0.33498900  0.93010142  0.66605869    -0.05300
C3721       C  0.31258984  0.92059339  0.67261566    -0.32300
C3722       C  0.30081378  0.92876158  0.69328842     0.36700
H3723       H  0.34240618  0.97065005  0.71171020     0.17100
O3724       O  0.36796943  0.95725060  0.67471284    -0.59800
H3725       H  0.30444299  0.90634965  0.66187669     0.17100
O3726       O  0.27880987  0.91890798  0.69877983    -0.59900
H3727       H  0.26695092  0.92775480  0.68881710     0.44100
H3728       H  0.36471991  0.97014949  0.66292033     0.44100
C3729       C  0.30753441  0.04381492  0.81951981    -0.05000
C3730       C  0.29355561  0.05866377  0.83462119    -0.32400
C3731       C  0.30304912  0.07994225  0.84441141     0.36800
C3732       C  0.32693989  0.08660451  0.83948624    -0.05300
C3733       C  0.34125403  0.07151118  0.82517888    -0.32300
C3734       C  0.33173176  0.05030102  0.81515522     0.36700
H3735       H  0.27480734  0.05438155  0.83805603     0.17100
O3736       O  0.28905012  0.09384922  0.85922521    -0.59800
H3737       H  0.35995094  0.07616711  0.82193689     0.17100
O3738       O  0.34611129  0.03630768  0.80081054    -0.59900
H3739       H  0.35354086  0.02447678  0.81182975     0.44100
H3740       H  0.28075910  0.10528617  0.84839756     0.44100
C3741       C  0.05919538  0.47083051  0.05842632    -0.05000
C3742       C  0.04657096  0.45589596  0.07448066    -0.32400
C3743       C  0.05670956  0.43458785  0.08295457     0.36800
C3744       C  0.07990985  0.42783765  0.07562717    -0.05300
C3745       C  0.09285504  0.44274105  0.06006888    -0.32300
C3746       C  0.08265060  0.46396447  0.05125864     0.36700
H3747       H  0.02843220  0.46033999  0.08006857     0.17100
O3748       O  0.04385768  0.42047276  0.09849943    -0.59800
H3749       H  0.11105618  0.43798083  0.05493137     0.17100
O3750       O  0.09584316  0.47783137  0.03577248    -0.59900
H3751       H  0.09445672  0.46967096  0.01989380     0.44100
H3752       H  0.04844397  0.42625639  0.11482009     0.44100
C3753       C  0.07783734  0.59364670  0.91260552    -0.05000
C3754       C  0.05709660  0.60410535  0.92233226    -0.32400
C3755       C  0.04671187  0.59493793  0.94324375     0.36800
C3756       C  0.05693858  0.57465814  0.95458499    -0.05300
C3757       C  0.07774870  0.56425977  0.94455406    -0.32300
C3758       C  0.08821114  0.57368136  0.92384089     0.36700
H3759       H  0.04943089  0.61994898  0.91408331     0.17100
O3760       O  0.02666241  0.60603601  0.95238750    -0.59800
H3761       H  0.08581241  0.54847798  0.95251802     0.17100
O3762       O  0.10856475  0.56324041  0.91461091    -0.59900
H3763       H  0.12217418  0.57055933  0.92375628     0.44100
H3764       H  0.01295406  0.59994167  0.94251474     0.44100
C3765       C  0.95973524  0.57554347  0.06377866    -0.05000
C3766       C  0.95018188  0.59752012  0.05579879    -0.32400
C3767       C  0.92931855  0.60702560  0.06611622     0.36800
C3768       C  0.91747036  0.59442803  0.08442145    -0.05300
C3769       C  0.92736987  0.57309414  0.09315994    -0.32300
C3770       C  0.94856803  0.56384734  0.08336008     0.36700
H3771       H  0.95840780  0.60697682  0.04095211     0.17100
O3772       O  0.92071530  0.62873377  0.05836360    -0.59800
H3773       H  0.91879634  0.56382197  0.10793762     0.17100
O3774       O  0.95739092  0.54270434  0.09230798    -0.59900
H3775       H  0.96930116  0.54758562  0.10481457     0.44100
H3776       H  0.90817518  0.62468733  0.04618633     0.44100
C3777       C  0.03865256  0.45150582  0.95201984    -0.05000
C3778       C  0.04124740  0.45352054  0.92706247    -0.32400
C3779       C  0.05906698  0.44038549  0.91501890     0.36800
C3780       C  0.07448659  0.42510275  0.92802719    -0.05300
C3781       C  0.07102877  0.42213694  0.95275612    -0.32300
C3782       C  0.05345100  0.43544578  0.96482101     0.36700
H3783       H  0.03061935  0.46648800  0.91719769     0.17100
O3784       O  0.06235753  0.44373491  0.89083787    -0.59800
H3785       H  0.08257565  0.41013521  0.96282473     0.17100
O3786       O  0.05142496  0.43342236  0.98932960    -0.59900
H3787       H  0.06450560  0.44365081  0.99615536     0.44100
H3788       H  0.05085350  0.43250727  0.88284619     0.44100
C3789       C  0.91346569  0.43658545  0.07670789    -0.05000
C3790       C  0.91164263  0.46167512  0.07745501    -0.32400
C3791       C  0.92357299  0.47573492  0.06047379     0.36800
C3792       C  0.93741640  0.46469999  0.04229621    -0.05300
C3793       C  0.93800730  0.43955819  0.04062916    -0.32300
C3794       C  0.92628023  0.42547879  0.05783737     0.36700
H3795       H  0.90151113  0.47036386  0.09166466     0.17100
O3796       O  0.92273674  0.50032365  0.06252462    -0.59800
H3797       H  0.94896601  0.43086812  0.02705326     0.17100
O3798       O  0.92817318  0.40091919  0.05663484    -0.59900
H3799       H  0.94224868  0.39694149  0.06692184     0.44100
H3800       H  0.90719149  0.50499638  0.05503853     0.44100
C3801       C  0.17964074  0.79948437  0.06298556    -0.05000
C3802       C  0.19153938  0.81615290  0.07817576    -0.32400
C3803       C  0.17961730  0.83642126  0.08700830     0.36800
C3804       C  0.15527000  0.84008312  0.08119114    -0.05300
C3805       C  0.14312342  0.82336842  0.06642211    -0.32300
C3806       C  0.15516008  0.80327240  0.05715020     0.36700
H3807       H  0.21047945  0.81401750  0.08252673     0.17100
O3808       O  0.19171516  0.85226645  0.10180696    -0.59800
H3809       H  0.12417935  0.82584725  0.06228908     0.17100
O3810       O  0.14289606  0.78764565  0.04226035    -0.59900
H3811       H  0.13663906  0.77490050  0.05297314     0.44100
H3812       H  0.19873286  0.86444474  0.09089899     0.44100
C3813       C  0.18650933  0.69816698  0.95785363    -0.05000
C3814       C  0.17168355  0.71220544  0.94287721    -0.32400
C3815       C  0.16207567  0.70280947  0.92148379     0.36800
C3816       C  0.16703975  0.67899246  0.91476313    -0.05300
C3817       C  0.18159317  0.66479432  0.92965271    -0.32300
C3818       C  0.19157512  0.67427288  0.95091256     0.36700
H3819       H  0.16791758  0.73077810  0.94744316     0.17100
O3820       O  0.14761122  0.71691531  0.90737952    -0.59800
H3821       H  0.18486217  0.64615546  0.92493001     0.17100
O3822       O  0.20569270  0.65985375  0.96504848    -0.59900
H3823       H  0.22166064  0.65952436  0.95708836     0.44100
H3824       H  0.13097319  0.71397652  0.91316659     0.44100
C3825       C  0.30656696  0.71146628  0.95867759    -0.05000
C3826       C  0.30544870  0.71273007  0.93353066    -0.32400
C3827       C  0.31661322  0.69517129  0.91925754     0.36800
C3828       C  0.32927780  0.67614638  0.93013724    -0.05300
C3829       C  0.33175667  0.67581096  0.95523182    -0.32300
C3830       C  0.32032566  0.69314685  0.96950558     0.36700
H3831       H  0.29447754  0.72631533  0.92496023     0.17100
O3832       O  0.31382285  0.69584757  0.89473383    -0.59800
H3833       H  0.34202861  0.66167987  0.96377518     0.17100
O3834       O  0.32229348  0.69186125  0.99409451    -0.59900
H3835       H  0.31112175  0.67879587  0.99892488     0.44100
H3836       H  0.32520497  0.70842983  0.88920226     0.44100
C3837       C  0.28148974  0.69659033  0.07121668    -0.05000
C3838       C  0.29901892  0.70916548  0.08488160    -0.32400
C3839       C  0.31966865  0.69758020  0.09339080     0.36800
C3840       C  0.32287393  0.67298188  0.08874219    -0.05300
C3841       C  0.30486571  0.66004066  0.07638196    -0.32300
C3842       C  0.28437012  0.67163561  0.06748353     0.36700
H3843       H  0.29743570  0.72835131  0.08795484     0.17100
O3844       O  0.33650994  0.71035390  0.10643516    -0.59800
H3845       H  0.30686286  0.64086706  0.07344955     0.17100
O3846       O  0.26737993  0.65843286  0.05506004    -0.59900
H3847       H  0.27436367  0.65567741  0.03888040     0.44100
H3848       H  0.34747446  0.71741279  0.09431448     0.44100
C3849       C  0.29768013  0.81749925  0.04491093    -0.05000
C3850       C  0.28742564  0.83188397  0.06304011    -0.32400
C3851       C  0.30196297  0.84446536  0.07947641     0.36800
C3852       C  0.32718768  0.84248854  0.07815171    -0.05300
C3853       C  0.33748371  0.82919219  0.05921105    -0.32300
C3854       C  0.32287698  0.81688598  0.04250554     0.36700
H3855       H  0.26800060  0.83253507  0.06508197     0.17100
O3856       O  0.29144910  0.85861262  0.09680131    -0.59800
H3857       H  0.35691751  0.82792784  0.05775369     0.17100
O3858       O  0.33338052  0.80325591  0.02480720    -0.59900
H3859       H  0.33658360  0.78745230  0.03230113     0.44100
H3860       H  0.28445233  0.84727243  0.10858605     0.44100
C3861       C  0.45665168  0.69628643  0.69752947    -0.05000
C3862       C  0.44248886  0.67848048  0.70842958    -0.32400
C3863       C  0.42539940  0.66549311  0.69505824     0.36800
C3864       C  0.42225603  0.67033352  0.67048592    -0.05300
C3865       C  0.43730132  0.68718448  0.65924290    -0.32300
C3866       C  0.45445494  0.70020594  0.67265931     0.36700
H3867       H  0.44372654  0.67564588  0.72767132     0.17100
O3868       O  0.41145831  0.64848805  0.70619308    -0.59800
H3869       H  0.43503297  0.69088646  0.64025770     0.17100
O3870       O  0.46718637  0.71831658  0.66184564    -0.59900
H3871       H  0.48321172  0.71133344  0.65828978     0.44100
H3872       H  0.39762707  0.65745123  0.71300314     0.44100
C3873       C  0.43608468  0.81631928  0.70374627    -0.05000
C3874       C  0.42195165  0.80394630  0.68652235    -0.32400
C3875       C  0.41353292  0.81560678  0.66591489     0.36800
C3876       C  0.41910066  0.83997161  0.66233758    -0.05300
C3877       C  0.43302201  0.85242991  0.67949796    -0.32300
C3878       C  0.44140745  0.84088883  0.70010739     0.36700
H3879       H  0.41789283  0.78501328  0.68868734     0.17100
O3880       O  0.39915034  0.80334711  0.64980979    -0.59800
H3881       H  0.43681358  0.87140495  0.67716498     0.17100
O3882       O  0.45484024  0.85383686  0.71650335    -0.59900
H3883       H  0.44316613  0.85926179  0.72884114     0.44100
H3884       H  0.41046942  0.79516771  0.63871803     0.44100
C3885       C  0.43078693  0.71894824  0.81363533    -0.05000
C3886       C  0.44406059  0.70237824  0.82737268    -0.32400
C3887       C  0.43288823  0.68256716  0.83784460     0.36800
C3888       C  0.40797369  0.67912768  0.83506716    -0.05300
C3889       C  0.39436174  0.69604479  0.82225732    -0.32300
C3890       C  0.40565117  0.71569795  0.81122978     0.36700
H3891       H  0.46345140  0.70410641  0.82916183     0.17100
O3892       O  0.44651043  0.66640395  0.85047842    -0.59800
H3893       H  0.37499268  0.69383298  0.82063923     0.17100
O3894       O  0.39199663  0.73166143  0.79838004    -0.59900
H3895       H  0.38919942  0.72382054  0.78251707     0.44100
H3896       H  0.44709658  0.67279391  0.86717545     0.44100
C3897       C  0.54750645  0.69920828  0.79223724    -0.05000
C3898       C  0.57261334  0.70227553  0.79307213    -0.32400
C3899       C  0.58644514  0.69009744  0.81029206     0.36800
C3900       C  0.57508393  0.67473129  0.82683511    -0.05300
C3901       C  0.55021380  0.67068394  0.82509408    -0.32300
C3902       C  0.53639463  0.68295966  0.80812176     0.36700
H3903       H  0.58126858  0.71523463  0.78144880     0.17100
O3904       O  0.61077858  0.69439645  0.81179614    -0.59800
H3905       H  0.54141272  0.65851880  0.83744755     0.17100
O3906       O  0.51186528  0.67951059  0.80754788    -0.59900
H3907       H  0.50556716  0.68883931  0.82141420     0.44100
H3908       H  0.61821555  0.68239826  0.80086981     0.44100
C3909       C  0.55268268  0.80105092  0.70006737    -0.05000
C3910       C  0.56752003  0.81840921  0.71126739    -0.32400
C3911       C  0.57828858  0.83673935  0.69798616     0.36800
C3912       C  0.57396797  0.83825476  0.67310624    -0.05300
C3913       C  0.55998100  0.82029868  0.66165241    -0.32300
C3914       C  0.54939446  0.80173134  0.67497991     0.36700
H3915       H  0.56991306  0.81831570  0.73062086     0.17100
O3916       O  0.59247680  0.85349044  0.70958944    -0.59800
H3917       H  0.55704218  0.82092241  0.64238080     0.17100
O3918       O  0.53484330  0.78516783  0.66355636    -0.59900
H3919       H  0.51844269  0.79220897  0.66386461     0.44100
H3920       H  0.60931124  0.84847021  0.70641849     0.44100
C3921       C  0.15816085  0.16683043  0.41723783    -0.05000
C3922       C  0.18196613  0.15984644  0.42156478    -0.32400
C3923       C  0.19531735  0.17039170  0.44029615     0.36800
C3924       C  0.18470706  0.18818185  0.45517389    -0.05300
C3925       C  0.16048566  0.19452683  0.45101691    -0.32300
C3926       C  0.14730600  0.18404305  0.43218164     0.36700
H3927       H  0.19019326  0.14616907  0.41034869     0.17100
O3928       O  0.21878861  0.16337989  0.44357868    -0.59800
H3929       H  0.15187565  0.20822045  0.46190102     0.17100
O3930       O  0.12377818  0.19066698  0.42850107    -0.59900
H3931       H  0.12442247  0.20329291  0.41600803     0.44100
H3932       H  0.22825164  0.17273860  0.43175172     0.44100
C3933       C  0.31905570  0.16870603  0.58381391    -0.05000
C3934       C  0.30618587  0.18797529  0.59372029    -0.32400
C3935       C  0.28663829  0.19799048  0.58139546     0.36800
C3936       C  0.28008438  0.18918203  0.55830169    -0.05300
C3937       C  0.29282639  0.16952064  0.54869835    -0.32300
C3938       C  0.31198058  0.15919698  0.56136294     0.36700
H3939       H  0.31132622  0.19523690  0.61116312     0.17100
O3940       O  0.27455735  0.21678777  0.59188729    -0.59800
H3941       H  0.28847903  0.16254944  0.53094006     0.17100
O3942       O  0.32428367  0.14033771  0.55128826    -0.59900
H3943       H  0.31495160  0.12577882  0.55567840     0.44100
H3944       H  0.28462183  0.23122193  0.58879159     0.44100
C3945       C  0.30500888  0.30071109  0.54038101    -0.05000
C3946       C  0.30208530  0.32567653  0.54186530    -0.32400
C3947       C  0.31251259  0.33864352  0.56093473     0.36800
C3948       C  0.32609323  0.32657517  0.57856767    -0.05300
C3949       C  0.33002426  0.30187646  0.57640942    -0.32300
C3950       C  0.31965236  0.28893051  0.55743718     0.36700
H3951       H  0.29040888  0.33484362  0.52924818     0.17100
O3952       O  0.30906759  0.36301323  0.56249152    -0.59800
H3953       H  0.34104860  0.29264923  0.58955443     0.17100
O3954       O  0.32277335  0.26448283  0.55641488    -0.59900
H3955       H  0.33725145  0.26204538  0.54630203     0.44100
H3956       H  0.29397624  0.36501113  0.57178137     0.44100
C3957       C  0.20400866  0.30521011  0.43678097    -0.05000
C3958       C  0.18693456  0.29441246  0.42128619    -0.32400
C3959       C  0.16878934  0.30801950  0.41062182     0.36800
C3960       C  0.16739461  0.33274655  0.41556265    -0.05300
C3961       C  0.18520483  0.34385944  0.42993662    -0.32300
C3962       C  0.20344914  0.33021100  0.44062291     0.36700
H3963       H  0.18695666  0.27510311  0.41845307     0.17100
O3964       O  0.15208083  0.29691995  0.39597497    -0.59800
H3965       H  0.18457205  0.36306644  0.43327543     0.17100
O3966       O  0.21959052  0.34117380  0.45599111    -0.59900
H3967       H  0.21184380  0.34076078  0.47203121     0.44100
H3968       H  0.15838884  0.29878827  0.37942704     0.44100
C3969       C  0.30642990  0.21811164  0.43876655    -0.05000
C3970       C  0.30070049  0.21480109  0.41435246    -0.32400
C3971       C  0.31259996  0.19723293  0.40066556     0.36800
C3972       C  0.33041002  0.18285106  0.41144678    -0.05300
C3973       C  0.33713948  0.18719768  0.43540503    -0.32300
C3974       C  0.32519191  0.20460190  0.44908919     0.36700
H3975       H  0.28583857  0.22457795  0.40639155     0.17100
O3976       O  0.30615911  0.19363999  0.37705433    -0.59800
H3977       H  0.35118319  0.17653570  0.44368469     0.17100
O3978       O  0.33117221  0.20759401  0.47291803    -0.59900
H3979       H  0.32218758  0.19484423  0.48152398     0.44100
H3980       H  0.29315069  0.18134624  0.37739314     0.44100
C3981       C  0.18875153  0.30244057  0.55025286    -0.05000
C3982       C  0.16397581  0.30609789  0.54646005    -0.32400
C3983       C  0.15240007  0.32605963  0.55645428     0.36800
C3984       C  0.16557734  0.34281990  0.57036553    -0.05300
C3985       C  0.19036158  0.33964281  0.57377477    -0.32300
C3986       C  0.20201542  0.31965007  0.56387061     0.36700
H3987       H  0.15351062  0.29339674  0.53579117     0.17100
O3988       O  0.12804717  0.32877468  0.55305138    -0.59800
H3989       H  0.20059432  0.35249202  0.58450384     0.17100
O3990       O  0.22653263  0.31772077  0.56671497    -0.59900
H3991       H  0.22893828  0.31159335  0.58326318     0.44100
H3992       H  0.12647038  0.34062555  0.53989657     0.44100
C3993       C  0.16379014  0.42181240  0.16665274    -0.05000
C3994       C  0.15754321  0.42592042  0.19066955    -0.32400
C3995       C  0.16821897  0.44473305  0.20376849     0.36800
C3996       C  0.18537209  0.45994229  0.19270839    -0.05300
C3997       C  0.19131479  0.45582694  0.16846989    -0.32300
C3998       C  0.18052247  0.43704699  0.15542866     0.36700
H3999       H  0.14428685  0.41449954  0.19924116     0.17100
O4000       O  0.16218145  0.44760712  0.22751836    -0.59800
H4001       H  0.20462550  0.46698234  0.15964933     0.17100
O4002       O  0.18672583  0.43338386  0.13182987    -0.59900
H4003       H  0.17664700  0.44475178  0.12253898     0.44100
H4004       H  0.17328024  0.43693692  0.23649512     0.44100
C4005       C  0.29065561  0.56084144  0.19211266    -0.05000
C4006       C  0.29391349  0.55542977  0.16761658    -0.32400
C4007       C  0.31352150  0.56488154  0.15511971     0.36800
C4008       C  0.33043296  0.57950271  0.16722393    -0.05300
C4009       C  0.32749038  0.58475982  0.19165301    -0.32300
C4010       C  0.30780516  0.57555551  0.20416968     0.36700
H4011       H  0.28128134  0.54378054  0.15814876     0.17100
O4012       O  0.31606203  0.55980074  0.13108457    -0.59800
H4013       H  0.34024088  0.59648585  0.20087585     0.17100
O4014       O  0.30583296  0.58068231  0.22826692    -0.59900
H4015       H  0.31576796  0.56840851  0.23649748     0.44100
H4016       H  0.30724225  0.57274553  0.12263874     0.44100
C4017       C  0.29753931  0.55386217  0.31072121    -0.05000
C4018       C  0.28559335  0.57155664  0.32427232    -0.32400
C4019       C  0.29841984  0.59047220  0.33506264     0.36800
C4020       C  0.32349656  0.59207810  0.33205391    -0.05300
C4021       C  0.33561195  0.57395315  0.31925618    -0.32300
C4022       C  0.32275559  0.55496449  0.30847180     0.36700
H4023       H  0.26611380  0.57113944  0.32574803     0.17100
O4024       O  0.28629777  0.60759000  0.34806640    -0.59800
H4025       H  0.35502803  0.57484051  0.31728013     0.17100
O4026       O  0.33477769  0.53841873  0.29465647    -0.59900
H4027       H  0.33499441  0.54525446  0.27822429     0.44100
H4028       H  0.28521021  0.60104912  0.36457683     0.44100
C4029       C  0.20963081  0.44918640  0.31146789    -0.05000
C4030       C  0.19721545  0.43021407  0.30007790    -0.32400
C4031       C  0.17835139  0.41847517  0.31163239     0.36800
C4032       C  0.17172427  0.42565325  0.33490765    -0.05300
C4033       C  0.18497091  0.44365631  0.34696328    -0.32300
C4034       C  0.20371884  0.45570298  0.33519540     0.36700
H4035       H  0.20102484  0.42567627  0.28147889     0.17100
O4036       O  0.16575452  0.40070677  0.29972294    -0.59800
H4037       H  0.18018042  0.44889789  0.36512621     0.17100
O4038       O  0.21508806  0.47473008  0.34635811    -0.59900
H4039       H  0.20467199  0.48883403  0.34323358     0.44100
H4040       H  0.17533622  0.38588417  0.30205658     0.44100
C4041       C  0.18277501  0.56789837  0.28830407    -0.05000
C4042       C  0.15963843  0.56014606  0.29528377    -0.32400
C4043       C  0.14794457  0.57087752  0.31479679     0.36800
C4044       C  0.15947902  0.58938514  0.32779330    -0.05300
C4045       C  0.18208008  0.59775476  0.32049539    -0.32300
C4046       C  0.19375837  0.58726505  0.30091657     0.36700
H4047       H  0.15088404  0.54522205  0.28607449     0.17100
O4048       O  0.12547875  0.56292795  0.32133119    -0.59800
H4049       H  0.19063284  0.61262424  0.33000105     0.17100
O4050       O  0.21622848  0.59561685  0.29485622    -0.59900
H4051       H  0.22754248  0.58759991  0.30607719     0.44100
H4052       H  0.11400233  0.57290069  0.31203450     0.44100
C4053       C  0.33227803  0.42442678  0.18272145    -0.05000
C4054       C  0.34286902  0.44320730  0.19613343    -0.32400
C4055       C  0.32982383  0.45484038  0.21434028     0.36800
C4056       C  0.30603076  0.44753891  0.21926522    -0.05300
C4057       C  0.29619190  0.42765848  0.20692898    -0.32300
C4058       C  0.30912950  0.41614434  0.18873088     0.36700
H4059       H  0.36078982  0.44955726  0.19168008     0.17100
O4060       O  0.33946607  0.47484047  0.22537648    -0.59800
H4061       H  0.27768767  0.42224175  0.21015249     0.17100
O4062       O  0.29869138  0.39741066  0.17624551    -0.59900
H4063       H  0.29006358  0.40495764  0.16259171     0.44100
H4064       H  0.34775679  0.46872915  0.23993304     0.44100
C4065       C  0.92492901  0.16728095  0.82250154    -0.05000
C4066       C  0.91796382  0.17332000  0.79907745    -0.32400
C4067       C  0.92845086  0.19302328  0.78756239     0.36800
C4068       C  0.94630099  0.20693973  0.79953359    -0.05300
C4069       C  0.95344118  0.20049903  0.82290230    -0.32300
C4070       C  0.94262648  0.18105559  0.83448920     0.36700
H4071       H  0.90388106  0.16311098  0.78999585     0.17100
O4072       O  0.92123349  0.19834863  0.76457068    -0.59800
H4073       H  0.96727961  0.21071910  0.83233602     0.17100
O4074       O  0.94917542  0.17579051  0.85768410    -0.59900
H4075       H  0.93855060  0.18578664  0.86795694     0.44100
H4076       H  0.93177730  0.18864063  0.75394546     0.44100
C4077       C  0.83563942  0.17842241  0.90686169    -0.05000
C4078       C  0.81335058  0.18563500  0.89758410    -0.32400
C4079       C  0.80217839  0.20652881  0.90608942     0.36800
C4080       C  0.81328007  0.22062083  0.92447112    -0.05300
C4081       C  0.83612725  0.21365442  0.93303839    -0.32300
C4082       C  0.84737172  0.19291199  0.92416497     0.36700
H4083       H  0.80463819  0.17504073  0.88356164     0.17100
O4084       O  0.78021773  0.21268669  0.89650616    -0.59800
H4085       H  0.84507507  0.22391548  0.94714581     0.17100
O4086       O  0.86966782  0.18665857  0.93280867    -0.59900
H4087       H  0.88134552  0.19537217  0.92255750     0.44100
H4088       H  0.76826033  0.20239882  0.90482751     0.44100
C4089       C  0.57665766  0.93605674  0.91670089    -0.05000
C4090       C  0.55851179  0.92469179  0.93012130    -0.32400
C4091       C  0.54053611  0.93817202  0.94148389     0.36800
C4092       C  0.54083425  0.96335644  0.93982916    -0.05300
C4093       C  0.55826268  0.97461238  0.92543578    -0.32300
C4094       C  0.57596186  0.96110881  0.91369821     0.36700
H4095       H  0.55862611  0.90532893  0.93215697     0.17100
O4096       O  0.52409338  0.92678354  0.95585354    -0.59800
H4097       H  0.55875706  0.99404890  0.92416284     0.17100
O4098       O  0.59246315  0.97244489  0.89932096    -0.59900
H4099       H  0.60433909  0.97990272  0.91053446     0.44100
H4100       H  0.51060166  0.92221677  0.94493880     0.44100
C4101       C  0.57112861  0.84053030  0.83792692    -0.05000
C4102       C  0.56582273  0.84667759  0.81419096    -0.32400
C4103       C  0.54592783  0.83661863  0.80243927     0.36800
C4104       C  0.53113253  0.81978890  0.81443432    -0.05300
C4105       C  0.53624623  0.81409550  0.83850618    -0.32300
C4106       C  0.55589817  0.82473996  0.85040784     0.36700
H4107       H  0.57717955  0.85939495  0.80478010     0.17100
O4108       O  0.54178986  0.84261846  0.77888030    -0.59800
H4109       H  0.52526679  0.80107678  0.84793008     0.17100
O4110       O  0.56040224  0.81928900  0.87402297    -0.59900
H4111       H  0.55181508  0.83176713  0.88346388     0.44100
H4112       H  0.55215586  0.83168414  0.76933347     0.44100
C4113       C  0.82253365  0.58042585  0.82952618    -0.05000
C4114       C  0.82852772  0.57829447  0.80519206    -0.32400
C4115       C  0.81694137  0.56126407  0.79051621     0.36800
C4116       C  0.79926787  0.54583197  0.80019244    -0.05300
C4117       C  0.79425696  0.54703224  0.82488377    -0.32300
C4118       C  0.80586962  0.56420975  0.83958718     0.36700
H4119       H  0.84164628  0.59042633  0.79740904     0.17100
O4120       O  0.82230443  0.56034901  0.76643698    -0.59800
H4121       H  0.78018554  0.53583510  0.83240484     0.17100
O4122       O  0.79972160  0.56604965  0.86338643    -0.59900
H4123       H  0.81238556  0.55708763  0.87217736     0.44100
H4124       H  0.81342464  0.57392984  0.75911348     0.44100
C4125       C  0.91277471  0.58446587  0.91624550    -0.05000
C4126       C  0.93706015  0.58195725  0.90994312    -0.32400
C4127       C  0.95174864  0.56553526  0.92202455     0.36800
C4128       C  0.94211416  0.55134353  0.94056631    -0.05300
C4129       C  0.91752826  0.55304198  0.94604325    -0.32300
C4130       C  0.90282159  0.56945568  0.93391249     0.36700
H4131       H  0.94477246  0.59329579  0.89617503     0.17100
O4132       O  0.97588466  0.56460545  0.91678949    -0.59800
H4133       H  0.91010777  0.54281313  0.96080498     0.17100
O4134       O  0.87914760  0.57186144  0.94048852    -0.59900
H4135       H  0.87024822  0.55970334  0.93073455     0.44100
H4136       H  0.97694464  0.55500286  0.90172877     0.44100
C4137       C  0.92645907  0.94097328  0.54392604    -0.05000
C4138       C  0.92979900  0.91612321  0.54693184    -0.32400
C4139       C  0.91973967  0.90414460  0.56655746     0.36800
C4140       C  0.90651911  0.91703286  0.58386001    -0.05300
C4141       C  0.90288898  0.94170846  0.58090075    -0.32300
C4142       C  0.91271565  0.95372276  0.56117795     0.36700
H4143       H  0.94055251  0.90598544  0.53422437     0.17100
O4144       O  0.92307943  0.87984190  0.56889423    -0.59800
H4145       H  0.89217254  0.95162111  0.59382205     0.17100
O4146       O  0.90935001  0.97806928  0.55941671    -0.59900
H4147       H  0.92294177  0.98546013  0.56854243     0.44100
H4148       H  0.91072420  0.87225705  0.55829230     0.44100
C4149       C  0.81577439  0.83329808  0.57895734    -0.05000
C4150       C  0.82822446  0.82101747  0.56063893    -0.32400
C4151       C  0.81569213  0.81066620  0.54111237     0.36800
C4152       C  0.79043288  0.81241863  0.53999992    -0.05300
C4153       C  0.77835222  0.82632067  0.55737538    -0.32300
C4154       C  0.79080339  0.83662412  0.57677608     0.36700
H4155       H  0.84762214  0.81900099  0.56183393     0.17100
O4156       O  0.82794810  0.79710592  0.52453199    -0.59800
H4157       H  0.75886983  0.82786346  0.55674120     0.17100
O4158       O  0.77847257  0.84983764  0.59360442    -0.59900
H4159       H  0.76962683  0.83789594  0.60341078     0.44100
H4160       H  0.83612894  0.80890579  0.51401769     0.44100
C4161       C  0.81189179  0.96150187  0.20475506    -0.05000
C4162       C  0.82641307  0.97294079  0.18757798    -0.32400
C4163       C  0.83785773  0.95969733  0.16955828     0.36800
C4164       C  0.83462501  0.93467962  0.16833304    -0.05300
C4165       C  0.82138500  0.92299897  0.18633480    -0.32300
C4166       C  0.80994212  0.93629184  0.20447529     0.36700
H4167       H  0.82771360  0.99239473  0.18732719     0.17100
O4168       O  0.85144699  0.97139957  0.15269926    -0.59800
H4169       H  0.81934961  0.90361423  0.18584431     0.17100
O4170       O  0.79560992  0.92468796  0.22078661    -0.59900
H4171       H  0.77981557  0.92248947  0.21257715     0.44100
H4172       H  0.86804046  0.97180212  0.15944398     0.44100
C4173       C  0.91760344  0.84431407  0.17157694    -0.05000
C4174       C  0.90297303  0.82993147  0.18622289    -0.32400
C4175       C  0.91218075  0.81958093  0.20725902     0.36800
C4176       C  0.93642989  0.82364661  0.21406481    -0.05300
C4177       C  0.95071017  0.83890720  0.19976015    -0.32300
C4178       C  0.94151707  0.84902468  0.17863229     0.36700
H4179       H  0.88424786  0.82688953  0.18136293     0.17100
O4180       O  0.89739629  0.80524706  0.22077085    -0.59800
H4181       H  0.96944073  0.84228158  0.20436447     0.17100
O4182       O  0.95582884  0.86396584  0.16527010    -0.59900
H4183       H  0.96559447  0.85311284  0.15501436     0.44100
H4184       H  0.89132814  0.81585574  0.23379840     0.44100
C4185       C  0.20788715  0.93731644  0.81398453    -0.05000
C4186       C  0.19743369  0.91773352  0.80147145    -0.32400
C4187       C  0.17693972  0.90606644  0.81030850     0.36800
C4188       C  0.16665403  0.91367372  0.83209907    -0.05300
C4189       C  0.17746319  0.93251360  0.84514771    -0.32300
C4190       C  0.19784207  0.94441287  0.83625204     0.36700
H4191       H  0.20460037  0.91193998  0.78429924     0.17100
O4192       O  0.16747961  0.88678149  0.79790032    -0.59800
H4193       H  0.17019449  0.93781898  0.86244187     0.17100
O4194       O  0.20799918  0.96268062  0.84964952    -0.59900
H4195       H  0.19713839  0.97663871  0.84751673     0.44100
H4196       H  0.15367070  0.89331950  0.78865791     0.44100
C4197       C  0.16746370  0.82576378  0.91796843    -0.05000
C4198       C  0.17789456  0.80398151  0.91078461    -0.32400
C4199       C  0.19703500  0.79423059  0.92398649     0.36800
C4200       C  0.20614912  0.80646947  0.94438439    -0.05300
C4201       C  0.19623247  0.82868466  0.95100033    -0.32300
C4202       C  0.17716388  0.83846957  0.93777346     0.36700
H4203       H  0.17084363  0.79434470  0.89524462     0.17100
O4204       O  0.20587886  0.77207205  0.91768073    -0.59800
H4205       H  0.20232190  0.83773495  0.96728104     0.17100
O4206       O  0.16736910  0.85994885  0.94492498    -0.59900
H4207       H  0.17581403  0.87233117  0.93532044     0.44100
H4208       H  0.19486242  0.76027659  0.92524848     0.44100
C4209       C  0.93424750  0.93500098  0.74765658    -0.05000
C4210       C  0.93608054  0.90996028  0.74432479    -0.32400
C4211       C  0.92341259  0.89817826  0.72572415     0.36800
C4212       C  0.90878279  0.91139363  0.70989499    -0.05300
C4213       C  0.90722430  0.93639358  0.71286132    -0.32300
C4214       C  0.91985589  0.94821688  0.73140852     0.36700
H4215       H  0.94706915  0.89936952  0.75640063     0.17100
O4216       O  0.92577536  0.87379002  0.72282715    -0.59800
H4217       H  0.89615458  0.94678271  0.70067209     0.17100
O4218       O  0.91815887  0.97274652  0.73323454    -0.59900
H4219       H  0.93251158  0.97907915  0.72474291     0.44100
H4220       H  0.91434922  0.86658109  0.73442554     0.44100
C4221       C  0.99999576  0.93586745  0.80852598    -0.05000
C4222       C  0.00644145  0.94208806  0.83232439    -0.32400
C4223       C  0.02601722  0.93114905  0.84385349     0.36800
C4224       C  0.03967018  0.91368554  0.83170344    -0.05300
C4225       C  0.03378584  0.90779404  0.80780043    -0.32300
C4226       C  0.01420183  0.91873769  0.79617039     0.36700
H4227       H  0.99597366  0.95514040  0.84231468     0.17100
O4228       O  0.03126917  0.93710601  0.86729038    -0.59800
H4229       H  0.04419418  0.89434568  0.79827713     0.17100
O4230       O  0.00910686  0.91238430  0.77280093    -0.59900
H4231       H  0.01770958  0.92439091  0.76286530     0.44100
H4232       H  0.04217149  0.95125041  0.86634876     0.44100
C4233       C  0.93951064  0.00078449  0.80806602    -0.05000
C4234       C  0.94724598  0.00792512  0.83125076    -0.32400
C4235       C  0.93748357  0.02819393  0.84264886     0.36800
C4236       C  0.91977941  0.04185439  0.83093306    -0.05300
C4237       C  0.91231911  0.03523027  0.80769654    -0.32300
C4238       C  0.92198498  0.01494662  0.79623226     0.36700
H4239       H  0.96058204  0.99751188  0.84088300     0.17100
O4240       O  0.94487031  0.03415548  0.86551622    -0.59800
H4241       H  0.89863259  0.04566003  0.79856470     0.17100
O4242       O  0.91386977  0.00908764  0.77359446    -0.59900
H4243       H  0.92476506  0.01774939  0.76248970     0.44100
H4244       H  0.95855499  0.04547059  0.86337094     0.44100
C4245       C  0.93190943  0.74749624  0.94378000    -0.05000
C4246       C  0.90717923  0.74410988  0.94854058    -0.32400
C4247       C  0.89397843  0.72549355  0.93734750     0.36800
C4248       C  0.90535989  0.70974832  0.92109707    -0.05300
C4249       C  0.93002242  0.71278771  0.91653859    -0.32300
C4250       C  0.94328795  0.73131369  0.92771201     0.36700
H4251       H  0.89786494  0.75614243  0.96072465     0.17100
O4252       O  0.86986470  0.72301290  0.94215211    -0.59800
H4253       H  0.93902301  0.70073321  0.90412694     0.17100
O4254       O  0.96737974  0.73333328  0.92267410    -0.59900
H4255       H  0.97563055  0.72331920  0.93486877     0.44100
H4256       H  0.86906291  0.71221323  0.95624542     0.44100
C4257       C  0.93697820  0.81175631  0.00591152    -0.05000
C4258       C  0.91188500  0.81092509  0.00946905    -0.32400
C4259       C  0.90113220  0.82368626  0.02837655     0.36800
C4260       C  0.91542640  0.83742766  0.04442465    -0.05300
C4261       C  0.94049305  0.83802293  0.04124675    -0.32300
C4262       C  0.95128286  0.82554352  0.02210162     0.36700
H4263       H  0.90041683  0.80078886  0.99719942     0.17100
O4264       O  0.87650247  0.82324091  0.03058086    -0.59800
H4265       H  0.95168313  0.84861818  0.05339070     0.17100
O4266       O  0.97587442  0.82660192  0.01972485    -0.59900
H4267       H  0.97913833  0.84195567  0.01134661     0.44100
H4268       H  0.87317883  0.81149364  0.04349478     0.44100
C4269       C  0.00081110  0.80485273  0.94450780    -0.05000
C4270       C  0.00866531  0.82831074  0.95040960    -0.32400
C4271       C  0.02821434  0.83888726  0.93854055     0.36800
C4272       C  0.04059449  0.82599918  0.92064759    -0.05300
C4273       C  0.03357568  0.80231512  0.91532252    -0.32300
C4274       C  0.01397306  0.79166982  0.92712647     0.36700
H4275       H  0.99919123  0.83889065  0.96375784     0.17100
O4276       O  0.03500741  0.86195831  0.94438401    -0.59800
H4277       H  0.04304826  0.79222313  0.90159051     0.17100
O4278       O  0.00770042  0.76850833  0.92117807    -0.59900
H4279       H  0.01773623  0.75825464  0.93173532     0.44100
H4280       H  0.02487761  0.87241073  0.93411620     0.44100
C4281       C  0.83004911  0.05269654  0.91758646    -0.05000
C4282       C  0.84036777  0.04247078  0.93809877    -0.32400
C4283       C  0.82867844  0.02382470  0.95030191     0.36800
C4284       C  0.80602942  0.01501442  0.94206564    -0.05300
C4285       C  0.79551828  0.02589899  0.92172134    -0.32300
C4286       C  0.80733230  0.04455543  0.90958051     0.36700
H4287       H  0.85793891  0.04855996  0.94430441     0.17100
O4288       O  0.83988779  0.01419891  0.97003023    -0.59800
H4289       H  0.77826273  0.01967148  0.91483687     0.17100
O4290       O  0.79708536  0.05394955  0.88922359    -0.59900
H4291       H  0.78820501  0.06837313  0.89479520     0.44100
H4292       H  0.85089943  0.00177301  0.96351145     0.44100
C4293       C  0.74153834  0.95270449  0.94160948    -0.05000
C4294       C  0.73577727  0.92870182  0.94729528    -0.32400
C4295       C  0.71677837  0.91656634  0.93569704     0.36800
C4296       C  0.70287794  0.92836184  0.91824204    -0.05300
C4297       C  0.70803582  0.95242776  0.91285476    -0.32300
C4298       C  0.72710897  0.96464035  0.92438829     0.36700
H4299       H  0.74630234  0.91901851  0.96048392     0.17100
O4300       O  0.71168668  0.89323511  0.94177293    -0.59800
H4301       H  0.69725668  0.96172800  0.89956738     0.17100
O4302       O  0.73139806  0.98819450  0.91860848    -0.59900
H4303       H  0.72206175  0.99772853  0.93045583     0.44100
H4304       H  0.72179532  0.88324517  0.93098895     0.44100
C4305       C  0.80513314  0.95160242  0.00433880    -0.05000
C4306       C  0.82419216  0.96321955  0.01673206    -0.32400
C4307       C  0.83629466  0.95193904  0.03577333     0.36800
C4308       C  0.82972016  0.92854200  0.04265181    -0.05300
C4309       C  0.81061722  0.91695421  0.03067267    -0.32300
C4310       C  0.79831274  0.92821730  0.01176489     0.36700
H4311       H  0.82988779  0.98111632  0.01163182     0.17100
O4312       O  0.85500251  0.96365244  0.04714006    -0.59800
H4313       H  0.80535967  0.89895214  0.03589665     0.17100
O4314       O  0.77981458  0.91597078  0.00062215    -0.59900
H4315       H  0.78755449  0.90648451  0.98762877     0.44100
H4316       H  0.84740790  0.97301116  0.06030931     0.44100
C4317       C  0.78973152  0.74153343  0.80759291    -0.05000
C4318       C  0.78608954  0.73879506  0.83249124    -0.32400
C4319       C  0.79806061  0.72088602  0.84542712     0.36800
C4320       C  0.81393647  0.70517766  0.83359941    -0.05300
C4321       C  0.81691498  0.70711459  0.80865396    -0.32300
C4322       C  0.80504870  0.72512247  0.79563552     0.36700
H4323       H  0.77444006  0.75102029  0.84220544     0.17100
O4324       O  0.79458733  0.71924291  0.86977078    -0.59800
H4325       H  0.82881342  0.69483118  0.79930584     0.17100
O4326       O  0.80816568  0.72616523  0.77119922    -0.59900
H4327       H  0.82509024  0.73149405  0.76891772     0.44100
H4328       H  0.78261352  0.70611632  0.87177379     0.44100
C4329       C  0.73095984  0.80791111  0.80746445    -0.05000
C4330       C  0.72619317  0.80327583  0.83187868    -0.32400
C4331       C  0.70924011  0.81680989  0.84468373     0.36800
C4332       C  0.69641368  0.83520446  0.83319712    -0.05300
C4333       C  0.70052573  0.83958146  0.80874080    -0.32300
C4334       C  0.71757379  0.82612076  0.79584675     0.36700
H4335       H  0.73598881  0.78941276  0.84134395     0.17100
O4336       O  0.70511889  0.81176928  0.86842553    -0.59800
H4337       H  0.69052925  0.85357048  0.79966171     0.17100
O4338       O  0.72099686  0.83105233  0.77196558    -0.59900
H4339       H  0.70906968  0.82085896  0.76322971     0.44100
H4340       H  0.71611604  0.82261857  0.87757951     0.44100
C4341       C  0.79162201  0.80213790  0.74263679    -0.05000
C4342       C  0.78101308  0.82199723  0.73111244    -0.32400
C4343       C  0.79289744  0.83400724  0.71248547     0.36800
C4344       C  0.81575387  0.82630505  0.70495423    -0.05300
C4345       C  0.82615098  0.80616889  0.71574274    -0.32300
C4346       C  0.81426096  0.79395589  0.73423417     0.36700
H4347       H  0.76359574  0.82861468  0.73680512     0.17100
O4348       O  0.78219441  0.85348446  0.70194232    -0.59800
H4349       H  0.84376475  0.80009494  0.71000018     0.17100
O4350       O  0.82547683  0.77461693  0.74444930    -0.59900
H4351       H  0.82125537  0.76075799  0.73388615     0.44100
H4352       H  0.78748614  0.86754638  0.71173096     0.44100
C4353       C  0.44804939  0.18615839  0.19087153    -0.05000
C4354       C  0.43858215  0.19197200  0.16811843    -0.32400
C4355       C  0.41734316  0.18114738  0.15959796     0.36800
C4356       C  0.40493618  0.16450757  0.17393106    -0.05300
C4357       C  0.41418626  0.15854010  0.19654472    -0.32300
C4358       C  0.43554898  0.16912449  0.20507670     0.36700
H4359       H  0.44745516  0.20518890  0.15696093     0.17100
O4360       O  0.40877240  0.18692294  0.13718749    -0.59800
H4361       H  0.40509276  0.14517343  0.20735742     0.17100
O4362       O  0.44395388  0.16260714  0.22734334    -0.59900
H4363       H  0.43479587  0.17257849  0.23897831     0.44100
H4364       H  0.41590401  0.17485560  0.12612269     0.44100
C4365       C  0.58175023  0.34058368  0.31150778    -0.05000
C4366       C  0.58259556  0.33985074  0.28633030    -0.32400
C4367       C  0.56585897  0.32607643  0.27327383     0.36800
C4368       C  0.54784719  0.31297826  0.28541849    -0.05300
C4369       C  0.54626195  0.31468612  0.31049713    -0.32300
C4370       C  0.56316999  0.32828768  0.32358508     0.36700
H4371       H  0.59657838  0.34957269  0.27687104     0.17100
O4372       O  0.56776305  0.32479526  0.24869265    -0.59800
H4373       H  0.53282822  0.30431156  0.32005041     0.17100
O4374       O  0.56232403  0.32836641  0.34825069    -0.59900
H4375       H  0.54902512  0.33945289  0.35249978     0.44100
H4376       H  0.55610992  0.33675468  0.24249283     0.44100
C4377       C  0.57335350  0.16662173  0.32874933    -0.05000
C4378       C  0.58785259  0.18300673  0.31628661    -0.32400
C4379       C  0.57944359  0.19398539  0.29528599     0.36800
C4380       C  0.55632799  0.18818150  0.28614609    -0.05300
C4381       C  0.54208267  0.17130470  0.29860766    -0.32300
C4382       C  0.55043653  0.16061897  0.31972520     0.36700
H4383       H  0.60587174  0.18711904  0.32280521     0.17100
O4384       O  0.59407714  0.21010489  0.28374119    -0.59800
H4385       H  0.52404009  0.16682897  0.29241948     0.17100
O4386       O  0.53614657  0.14428033  0.33140303    -0.59900
H4387       H  0.54022492  0.12845777  0.32419290     0.44100
H4388       H  0.59253981  0.22536444  0.29295055     0.44100
C4389       C  0.57983265  0.32423043  0.15267236    -0.05000
C4390       C  0.59360651  0.30749720  0.16552565    -0.32400
C4391       C  0.58276182  0.28715573  0.17565898     0.36800
C4392       C  0.55773294  0.28321081  0.17281695    -0.05300
C4393       C  0.54439471  0.29929373  0.15851405    -0.32300
C4394       C  0.55525948  0.31961040  0.14852550     0.36700
H4395       H  0.61278917  0.31046876  0.16803070     0.17100
O4396       O  0.59673448  0.27141855  0.18846339    -0.59800
H4397       H  0.52513271  0.29691580  0.15605471     0.17100
O4398       O  0.54159251  0.33522784  0.13526875    -0.59900
H4399       H  0.54141810  0.32843485  0.11872196     0.44100
H4400       H  0.59956592  0.27933112  0.20428784     0.44100
C4401       C  0.44049066  0.30437173  0.20355809    -0.05000
C4402       C  0.44480923  0.32919908  0.20371919    -0.32400
C4403       C  0.43297770  0.34400969  0.18720727     0.36800
C4404       C  0.41661108  0.33393229  0.17043278    -0.05300
C4405       C  0.41129108  0.30933565  0.17121640    -0.32300
C4406       C  0.42327822  0.29451290  0.18749510     0.36700
H4407       H  0.45847672  0.33686218  0.21552907     0.17100
O4408       O  0.43836168  0.36809822  0.18670204    -0.59800
H4409       H  0.39820507  0.30158019  0.15882422     0.17100
O4410       O  0.41848970  0.27026658  0.18733655    -0.59900
H4411       H  0.42716601  0.26372866  0.17317881     0.44100
H4412       H  0.42922170  0.37530171  0.20022252     0.44100
C4413       C  0.42398669  0.18099609  0.33014083    -0.05000
C4414       C  0.41245112  0.19924289  0.31709770    -0.32400
C4415       C  0.42591662  0.21717550  0.30573811     0.36800
C4416       C  0.45120275  0.21669353  0.30705946    -0.05300
C4417       C  0.46260327  0.19941589  0.32146283    -0.32300
C4418       C  0.44914844  0.18172089  0.33312097     0.36700
H4419       H  0.39299487  0.19908685  0.31513287     0.17100
O4420       O  0.41438721  0.23352641  0.29141870    -0.59800
H4421       H  0.48212799  0.19871108  0.32236974     0.17100
O4422       O  0.46065776  0.16501591  0.34708823    -0.59900
H4423       H  0.46847698  0.15379862  0.33561000     0.44100
H4424       H  0.41104367  0.24743915  0.30213175     0.44100
C4425       C  0.53232947  0.44635813  0.42442732    -0.05000
C4426       C  0.53814090  0.42196116  0.42745239    -0.32400
C4427       C  0.55777634  0.41172297  0.41545580     0.36800
C4428       C  0.57226726  0.42590517  0.40042450    -0.05300
C4429       C  0.56621634  0.44998221  0.39667376    -0.32300
C4430       C  0.54638070  0.46023923  0.40835325     0.36700
H4431       H  0.52788959  0.41090518  0.43972576     0.17100
O4432       O  0.56329109  0.38804063  0.41928309    -0.59800
H4433       H  0.57711699  0.46093379  0.38485709     0.17100
O4434       O  0.54194125  0.48423654  0.40504084    -0.59900
H4435       H  0.53207961  0.48503363  0.39013376     0.44100
H4436       H  0.55472638  0.37902244  0.40633929     0.44100
C4437       C  0.42245833  0.57953762  0.58398713    -0.05000
C4438       C  0.43981175  0.59016694  0.56907549    -0.32400
C4439       C  0.45598721  0.57585503  0.55605212     0.36800
C4440       C  0.45494270  0.55067061  0.55804783    -0.05300
C4441       C  0.43857822  0.54022321  0.57413262    -0.32300
C4442       C  0.42250267  0.55449063  0.58717650     0.36700
H4443       H  0.44001101  0.60948220  0.56666936     0.17100
O4444       O  0.47145321  0.58648539  0.54010348    -0.59800
H4445       H  0.43742497  0.52082887  0.57562484     0.17100
O4446       O  0.40646161  0.54384394  0.60256061    -0.59900
H4447       H  0.39344874  0.53718407  0.59213333     0.44100
H4448       H  0.46237410  0.58723091  0.52470219     0.44100
C4449       C  0.42929560  0.54688450  0.43815391    -0.05000
C4450       C  0.43765797  0.55485104  0.41566676    -0.32400
C4451       C  0.42898115  0.57609710  0.40548018     0.36800
C4452       C  0.41199846  0.59010795  0.41787627    -0.05300
C4453       C  0.40324835  0.58214741  0.44004071    -0.32300
C4454       C  0.41156181  0.56068721  0.45012593     0.36700
H4455       H  0.45136011  0.54486759  0.40607176     0.17100
O4456       O  0.43724371  0.58312898  0.38338843    -0.59800
H4457       H  0.38938497  0.59230876  0.44921818     0.17100
O4458       O  0.40219305  0.55348158  0.47171071    -0.59900
H4459       H  0.41129573  0.56271582  0.48413545     0.44100
H4460       H  0.42739011  0.57393429  0.37152096     0.44100
C4461       C  0.41064201  0.41504023  0.57388909    -0.05000
C4462       C  0.39694940  0.42909410  0.55812568    -0.32400
C4463       C  0.40736422  0.43901138  0.53752380     0.36800
C4464       C  0.43185278  0.43466138  0.53225200    -0.05300
C4465       C  0.44509978  0.41938493  0.54747519    -0.32300
C4466       C  0.43465391  0.40963117  0.56812724     0.36700
H4467       H  0.37809756  0.43243840  0.56189109     0.17100
O4468       O  0.39344239  0.45287807  0.52264608    -0.59800
H4469       H  0.46398400  0.41587639  0.54405598     0.17100
O4470       O  0.44811699  0.39509336  0.58275762    -0.59900
H4471       H  0.44489038  0.37849183  0.57690703     0.44100
H4472       H  0.39193811  0.46860437  0.53103110     0.44100
C4473       C  0.56732767  0.58244773  0.41743854    -0.05000
C4474       C  0.54286608  0.58740817  0.42068173    -0.32400
C4475       C  0.53022588  0.57681689  0.43951965     0.36800
C4476       C  0.54213559  0.56111999  0.45542869    -0.05300
C4477       C  0.56699246  0.55741593  0.45308127    -0.32300
C4478       C  0.57965752  0.56813785  0.43422795     0.36700
H4479       H  0.53352020  0.59921030  0.40835734     0.17100
O4480       O  0.50597179  0.58112004  0.44182522    -0.59800
H4481       H  0.57619237  0.54485900  0.46473823     0.17100
O4482       O  0.60379449  0.56360586  0.43158758    -0.59900
H4483       H  0.61213287  0.57696650  0.44018590     0.44100
H4484       H  0.49801823  0.57125434  0.42910189     0.44100
C4485       C  0.55260194  0.45532628  0.54268887    -0.05000
C4486       C  0.55411997  0.45776536  0.56778909    -0.32400
C4487       C  0.56631031  0.44043682  0.58146776     0.36800
C4488       C  0.57672899  0.42029348  0.57000274    -0.05300
C4489       C  0.57646896  0.41874975  0.54491187    -0.32300
C4490       C  0.56459934  0.43606055  0.53127272     0.36700
H4491       H  0.54480523  0.47229489  0.57685005     0.17100
O4492       O  0.56703962  0.44269412  0.60605260    -0.59800
H4493       H  0.58530621  0.40389436  0.53588468     0.17100
O4494       O  0.56458524  0.43396540  0.50664239    -0.59900
H4495       H  0.55309833  0.42073368  0.50281902     0.44100
H4496       H  0.58105658  0.45333159  0.60952116     0.44100
loop_ 
_geom_bond_atom_site_label_1 
_geom_bond_atom_site_label_2 
_geom_bond_distance 
_geom_bond_site_symmetry_2 
_ccdc_geom_bond_type 
O1           C17   1.272       .  A
O1           Zn7   2.005       .  S
C2           O18   1.273       .  A
C2           O15   1.274       .  A
C2         C4449   1.489       .  S
O3           C16   1.278       .  A
O3          Cd10   2.108       .  S
O4           C22   1.269       .  A
O4          Cd13   2.030       .  S
O5           C19   1.276       .  A
O5           Cd9   2.069       .  S
O6           C17   1.276       .  A
O6           Cd9   2.076       .  S
Zn7          O18   2.004       .  S
Zn7          O20   1.935       .  S
Zn7          O12   1.914       .  S
O8           C19   1.275       .  A
O8          Cd13   2.060       .  S
Cd9          O11   2.015       .  S
Cd9          O12   1.974       .  S
Cd10         O14   2.117       .  S
Cd10         O23   2.105       .  S
Cd10         O12   2.038       .  S
O11          C21   1.267       .  A
O12         Cd13   1.973       .  S
Cd13         O15   2.067       .  S
O14          C21   1.280       .  A
C16          O20   1.263       .  A
C16        C4476   1.463       .  S
C17        C4425   1.490       .  S
C19        C4464   1.484       .  S
C21        C4485   1.475       .  S
C22          O23   1.279       .  A
C22        C4440   1.469       .  S
O24          C40   1.270       .  A
O24         Zn30   1.990       .  S
C25          O41   1.272       .  A
C25          O38   1.276       .  A
C25        C4380   1.484       .  S
O26          C39   1.277       .  A
O26         Cd33   2.104       .  S
O27          C45   1.269       .  A
O27         Cd36   2.030       .  S
O28          C42   1.275       .  A
O28         Cd32   2.054       .  S
O29          C40   1.274       .  A
O29         Cd32   2.066       .  S
Zn30         O41   1.986       .  S
Zn30         O43   1.939       .  S
Zn30         O35   1.903       .  S
O31          C42   1.277       .  A
O31         Cd36   2.071       .  S
Cd32         O34   2.014       .  S
Cd32         O35   1.970       .  S
Cd33         O37   2.099       .  S
Cd33         O46   2.098       .  S
Cd33         O35   2.029       .  S
O34          C44   1.267       .  A
O35         Cd36   1.974       .  S
Cd36         O38   2.075       .  S
O37          C44   1.278       .  A
C39          O43   1.264       .  A
C39        C4416   1.463       .  S
C40        C4353   1.486       .  S
C42        C4392   1.485       .  S
C44        C4401   1.464       .  S
C45          O46   1.278       .  A
C45        C4368   1.468       .  S
C47        C4317   1.492       .  S
C47          N48   1.360       .  A
C47          N52   1.360       .  A
N48          C49   1.361       .  A
C49        C4341   1.496       .  S
C49          N50   1.362       .  A
N50          C51   1.360       .  A
C51        C4329   1.494       .  S
C51          N52   1.360       .  A
C53        C4293   1.493       .  S
C53          N54   1.360       .  A
C53          N58   1.362       .  A
N54          C55   1.358       .  A
C55        C4305   1.497   1_556  S
C55          N56   1.360       .  A
N56          C57   1.362       .  A
C57        C4284   1.498   1_565  S
C57          N58   1.363       .  A
C59        C4257   1.492   1_556  S
C59          N60   1.362       .  A
C59          N64   1.359       .  A
N60          C61   1.362       .  A
C61        C4245   1.497       .  S
C61          N62   1.362       .  A
N62          C63   1.361       .  A
C63        C4269   1.495   1_655  S
C63          N64   1.360       .  A
C65        C4209   1.490       .  S
C65          N66   1.362       .  A
C65          N70   1.360       .  A
N66          C67   1.362       .  A
C67        C4221   1.492       .  S
C67          N68   1.360       .  A
N68          C69   1.360       .  A
C69        C4233   1.493   1_565  S
C69          N70   1.360       .  A
N71          C76   1.355       .  A
N71          C75   1.355       .  A
N71         H103   1.032       .  S
N72          C79   1.352       .  A
N72          C80   1.354       .  A
N73          C78   1.350       .  A
N73          C77   1.351       .  A
N73         H104   1.029       .  S
N74          C81   1.353       .  A
N74          C82   1.354       .  A
C75          C83   1.388       .  A
C75          C91   1.422       .  A
C76          C92   1.422       .  A
C76          C84   1.388       .  A
C77          C85   1.387       .  A
C77          C94   1.413       .  A
C78          C93   1.415       .  A
C78          C86   1.389       .  A
C79          C91   1.419       .  A
C79          C87   1.387       .  A
C80          C94   1.419       .  A
C80          C88   1.386       .  A
C81          C89   1.387       .  A
C81          C92   1.419       .  A
C82          C90   1.386       .  A
C82          C93   1.420       .  A
C83          C84   1.375       .  A
C83          H95   1.082       .  S
C84          H96   1.082       .  S
C85          C86   1.369       .  A
C85          H97   1.082       .  S
C86          H98   1.082       .  S
C87          C88   1.376       .  A
C87          H99   1.082       .  S
C88         H100   1.082       .  S
C89          C90   1.377       .  A
C89         H101   1.082       .  S
C90         H102   1.082       .  S
C91        C4272   1.490       .  S
C92        C4224   1.492       .  S
C93        C4188   1.483       .  S
C94        C4197   1.483       .  S
N105        C110   1.354       .  A
N105        C109   1.357       .  A
N105        H137   1.035       .  S
N106        C113   1.352       .  A
N106        C114   1.352       .  A
N107        C112   1.351       .  A
N107        C111   1.350       .  A
N107        H138   1.037       .  S
N108        C115   1.353       .  A
N108        C116   1.355       .  A
C109        C117   1.386       .  A
C109        C125   1.419       .  A
C110        C126   1.421       .  A
C110        C118   1.389       .  A
C111        C119   1.387       .  A
C111        C128   1.409       .  A
C112        C127   1.409       .  A
C112        C120   1.387       .  A
C113        C125   1.414       .  A
C113        C121   1.386       .  A
C114        C128   1.415       .  A
C114        C122   1.386       .  A
C115        C123   1.388       .  A
C115        C126   1.421       .  A
C116        C124   1.384       .  A
C116        C127   1.417       .  A
C117        C118   1.376       .  A
C117        H129   1.082       .  S
C118        H130   1.082       .  S
C119        C120   1.370       .  A
C119        H131   1.082       .  S
C120        H132   1.082       .  S
C121        C122   1.376       .  A
C121        H133   1.082       .  S
C122        H134   1.082       .  S
C123        C124   1.378       .  A
C123        H135   1.082       .  S
C124        H136   1.082       .  S
C125       C4308   1.492       .  S
C126       C4260   1.494       .  S
C127       C4173   1.487       .  S
C128       C4164   1.483       .  S
N139        C144   1.355       .  A
N139        C143   1.355       .  A
N139        H171   1.035       .  S
N140        C147   1.352       .  A
N140        C148   1.353       .  A
N141        C146   1.351       .  A
N141        C145   1.350       .  A
N141        H172   1.037       .  S
N142        C149   1.352       .  A
N142        C150   1.353       .  A
C143        C151   1.387       .  A
C143        C159   1.421       .  A
C144        C160   1.420       .  A
C144        C152   1.388       .  A
C145        C153   1.387       .  A
C145        C162   1.408       .  A
C146        C161   1.408       .  A
C146        C154   1.387       .  A
C147        C159   1.417       .  A
C147        C155   1.387       .  A
C148        C162   1.413       .  A
C148        C156   1.385       .  A
C149        C157   1.387       .  A
C149        C160   1.416       .  A
C150        C158   1.386       .  A
C150        C161   1.416       .  A
C151        C152   1.376       .  A
C151        H163   1.082       .  S
C152        H164   1.082       .  S
C153        C154   1.368       .  A
C153        H165   1.082       .  S
C154        H166   1.082       .  S
C155        C156   1.376       .  A
C155        H167   1.082       .  S
C156        H168   1.082       .  S
C157        C158   1.375       .  A
C157        H169   1.082       .  S
C158        H170   1.082       .  S
C159       C4212   1.492       .  S
C160       C4344   1.488       .  S
C161       C4149   1.485       .  S
C162       C4140   1.482       .  S
N173        C178   1.355       .  A
N173        C177   1.356       .  A
N173        H205   1.037       .  S
N174        C181   1.354       .  A
N174        C182   1.353       .  A
N175        C180   1.352       .  A
N175        C179   1.351       .  A
N175        H206   1.036       .  S
N176        C183   1.352       .  A
N176        C184   1.353       .  A
C177        C185   1.387       .  A
C177        C193   1.420       .  A
C178        C194   1.421       .  A
C178        C186   1.388       .  A
C179        C187   1.387       .  A
C179        C196   1.412       .  A
C180        C195   1.411       .  A
C180        C188   1.387       .  A
C181        C193   1.417       .  A
C181        C189   1.386       .  A
C182        C196   1.417       .  A
C182        C190   1.386       .  A
C183        C191   1.387       .  A
C183        C194   1.416       .  A
C184        C192   1.386       .  A
C184        C195   1.415       .  A
C185        C186   1.376       .  A
C185        H197   1.082       .  S
C186        H198   1.082       .  S
C187        C188   1.373       .  A
C187        H199   1.082       .  S
C188        H200   1.082       .  S
C189        C190   1.374       .  A
C189        H201   1.082       .  S
C190        H202   1.082       .  S
C191        C192   1.374       .  A
C191        H203   1.082       .  S
C192        H204   1.082       .  S
C193       C4248   1.496       .  S
C194       C4320   1.491       .  S
C195       C4113   1.485       .  S
C196       C4125   1.483       .  S
N207        C212   1.354       .  A
N207        C211   1.356       .  A
N207        H239   1.035       .  S
N208        C215   1.351       .  A
N208        C216   1.350       .  A
N209        C214   1.351       .  A
N209        C213   1.348       .  A
N209        H240   1.037       .  S
N210        C217   1.352       .  A
N210        C218   1.354       .  A
C211        C219   1.387       .  A
C211        C227   1.421       .  A
C212        C228   1.420       .  A
C212        C220   1.387       .  A
C213        C221   1.388       .  A
C213        C230   1.408       .  A
C214        C229   1.408       .  A
C214        C222   1.387       .  A
C215        C227   1.414       .  A
C215        C223   1.387       .  A
C216        C230   1.411       .  A
C216        C224   1.386       .  A
C217        C225   1.387       .  A
C217        C228   1.416       .  A
C218        C226   1.385       .  A
C218        C229   1.415       .  A
C219        C220   1.378       .  A
C219        H231   1.082       .  S
C220        H232   1.082       .  S
C221        C222   1.369       .  A
C221        H233   1.082       .  S
C222        H234   1.082       .  S
C223        C224   1.374       .  A
C223        H235   1.082       .  S
C224        H236   1.082       .  S
C225        C226   1.375       .  A
C225        H237   1.082       .  S
C226        H238   1.082       .  S
C227       C4332   1.490       .  S
C228       C4296   1.489       .  S
C229       C4089   1.487       .  S
C230       C4101   1.473       .  S
N241        C246   1.354       .  A
N241        C245   1.355       .  A
N241        H273   1.034       .  S
N242        C249   1.351       .  A
N242        C250   1.351       .  A
N243        C248   1.351       .  A
N243        C247   1.350       .  A
N243        H274   1.035       .  S
N244        C251   1.352       .  A
N244        C252   1.353       .  A
C245        C253   1.387       .  A
C245        C261   1.419       .  A
C246        C262   1.420       .  A
C246        C254   1.388       .  A
C247        C255   1.388       .  A
C247        C264   1.412       .  A
C248        C263   1.411       .  A
C248        C256   1.387       .  A
C249        C261   1.415       .  A
C249        C257   1.387       .  A
C250        C264   1.413       .  A
C250        C258   1.386       .  A
C251        C259   1.387       .  A
C251        C262   1.417       .  A
C252        C260   1.385       .  A
C252        C263   1.416       .  A
C253        C254   1.374       .  A
C253        H265   1.082       .  S
C254        H266   1.082       .  S
C255        C256   1.369       .  A
C255        H267   1.082       .  S
C256        H268   1.082       .  S
C257        C258   1.376       .  A
C257        H269   1.082       .  S
C258        H270   1.082       .  S
C259        C260   1.377       .  A
C259        H271   1.082       .  S
C260        H272   1.082       .  S
C261       C4236   1.488       .  S
C262       C4281   1.489       .  S
C263       C4077   1.485       .  S
C264       C4065   1.479       .  S
O275        C291   1.272       .  A
O275       Zn281   1.995       .  S
C276        O292   1.273       .  A
C276        O289   1.271       .  A
C276       C4041   1.478       .  S
O277        C290   1.278       .  A
O277       Cd284   2.105       .  S
O278        C296   1.266       .  A
O278       Cd287   1.999       .  S
O279        C293   1.273       .  A
O279       Cd283   2.054       .  S
O280        C291   1.272       .  A
O280       Cd283   2.042       .  S
Zn281       O292   2.005       .  S
Zn281       O294   1.955       .  S
Zn281       O286   1.911       .  S
O282        C293   1.272       .  A
O282       Cd287   2.054       .  S
Cd283       O285   2.016       .  S
Cd283       O286   1.970       .  S
Cd284       O288   2.111       .  S
Cd284       O297   2.105       .  S
Cd284       O286   2.032       .  S
O285        C295   1.267       .  A
O286       Cd287   1.964       .  S
Cd287       O289   2.041       .  S
O288        C295   1.279       .  A
C290        O294   1.265       .  A
C290       C4017   1.467       .  S
C291       C4005   1.473       .  S
C293       C3996   1.480       .  S
C295       C4056   1.466       .  S
C296        O297   1.279       .  A
C296       C4029   1.457       .  S
O298        C314   1.275       .  A
O298       Zn304   2.015       .  S
C299        O315   1.274       .  A
C299        O312   1.275       .  A
C299       C3924   1.483       .  S
O300        C313   1.279       .  A
O300       Cd307   2.111       .  S
O301        C319   1.267       .  A
O301       Cd310   2.007       .  S
O302        C316   1.271       .  A
O302       Cd306   2.050       .  S
O303        C314   1.272       .  A
O303       Cd306   2.045       .  S
Zn304       O315   2.009       .  S
Zn304       O317   1.964       .  S
Zn304       O309   1.894       .  S
O305        C316   1.275       .  A
O305       Cd310   2.073       .  S
Cd306       O308   1.996       .  S
Cd306       O309   1.951       .  S
Cd307       O311   2.107       .  S
Cd307       O320   2.106       .  S
Cd307       O309   2.016       .  S
O308        C318   1.266       .  A
O309       Cd310   1.960       .  S
Cd310       O312   2.051       .  S
O311        C318   1.280       .  A
C313        O317   1.268       .  A
C313       C3969   1.467       .  S
C314       C3936   1.484       .  S
C316       C3981   1.481       .  S
C318       C3945   1.463       .  S
C319        O320   1.280       .  A
C319       C3957   1.466       .  S
O321        C337   1.273       .  A
O321       Zn327   2.007       .  S
C322        O338   1.273       .  A
C322        O335   1.275       .  A
C322       C3885   1.480       .  S
O323        C336   1.279       .  A
O323       Cd330   2.112       .  S
O324        C342   1.268       .  A
O324       Cd333   2.017       .  S
O325        C339   1.271       .  A
O325       Cd329   2.039       .  S
O326        C337   1.270       .  A
O326       Cd329   2.034       .  S
Zn327       O338   1.991       .  S
Zn327       O340   1.957       .  S
Zn327       O332   1.907       .  S
O328        C339   1.275       .  A
O328       Cd333   2.072       .  S
Cd329       O331   2.016       .  S
Cd329       O332   1.964       .  S
Cd330       O334   2.118       .  S
Cd330       O343   2.106       .  S
Cd330       O332   2.028       .  S
O331        C341   1.267       .  A
O332       Cd333   1.978       .  S
Cd333       O335   2.070       .  S
O334        C341   1.280       .  A
C336        O340   1.267       .  A
C336       C3897   1.469       .  S
C337       C4104   1.472       .  S
C339       C3873   1.479       .  S
C341       C3909   1.471       .  S
C342        O343   1.280       .  A
C342       C3861   1.464       .  S
O344        C360   1.274       .  A
O344       Zn350   2.002   1_556  S
C345        O361   1.273       .  A
C345        O358   1.273       .  A
C345       C3801   1.480       .  S
O346        C359   1.279       .  A
O346       Cd353   2.111       .  S
O347        C365   1.267       .  A
O347       Cd356   2.014       .  S
O348        C362   1.275       .  A
O348       Cd352   2.058       .  S
O349        C360   1.273       .  A
O349       Cd352   2.061   1_556  S
Zn350       O361   2.012       .  S
Zn350       O363   1.944   1_554  S
Zn350       O355   1.916       .  S
O351        C362   1.274       .  A
O351       Cd356   2.056       .  S
Cd352       O354   2.025   1_554  S
Cd352       O355   1.972       .  S
Cd353       O357   2.114       .  S
Cd353       O366   2.112   1_556  S
Cd353       O355   2.029   1_556  S
O354        C364   1.268       .  A
O355       Cd356   1.963       .  S
Cd356       O358   2.052       .  S
O357        C364   1.280       .  A
C359        O363   1.264       .  A
C359       C4200   1.462       .  S
C360       C3813   1.481       .  S
C362       C3837   1.482       .  S
C364       C3825   1.474       .  S
C365        O366   1.280       .  A
C365       C3849   1.470       .  S
O367        C383   1.274       .  A
O367       Zn373   2.009   1_455  S
C368        O384   1.274       .  A
C368        O381   1.274       .  A
C368       C3765   1.482       .  S
O369        C382   1.278       .  A
O369       Cd376   2.105   1_554  S
O370        C388   1.268       .  A
O370       Cd379   2.028       .  S
O371        C385   1.274       .  A
O371       Cd375   2.049       .  S
O372        C383   1.273       .  A
O372       Cd375   2.059   1_554  S
Zn373       O384   2.005       .  S
Zn373       O386   1.961       .  S
Zn373       O378   1.907   1_655  S
O374        C385   1.274       .  A
O374       Cd379   2.058   1_455  S
Cd375       O377   2.013       .  S
Cd375       O378   1.973   1_556  S
Cd376       O380   2.109   1_655  S
Cd376       O389   2.108       .  S
Cd376       O378   2.027   1_656  S
O377        C387   1.266       .  A
O378       Cd379   1.972   1_454  S
Cd379       O381   2.054   1_556  S
O380        C387   1.279       .  A
C382        O386   1.267       .  A
C382       C3792   1.470       .  S
C383       C3741   1.488       .  S
C385       C3756   1.483       .  S
C387       C3777   1.465       .  S
C388        O389   1.279       .  A
C388       C4128   1.467       .  S
O390        C406   1.276       .  A
O390       Zn396   2.019       .  S
C391        O407   1.277       .  A
C391        O404   1.275       .  A
C391       C3717   1.490       .  S
O392        C405   1.275       .  A
O392       Cd399   2.091       .  S
O393        C411   1.267       .  A
O393       Cd402   2.016       .  S
O394        C408   1.273       .  A
O394       Cd398   2.057   1_565  S
O395        C406   1.273       .  A
O395       Cd398   2.046       .  S
Zn396       O407   2.026   1_545  S
Zn396       O409   1.956       .  S
Zn396       O401   1.913   1_545  S
O397        C408   1.276       .  A
O397       Cd402   2.072       .  S
Cd398       O400   2.007       .  S
Cd398       O401   1.962   1_545  S
Cd399       O403   2.091       .  S
Cd399       O412   2.085   1_545  S
Cd399       O401   2.030   1_545  S
O400        C410   1.266       .  A
O401       Cd402   1.968       .  S
Cd402       O404   2.058       .  S
O403        C410   1.276       .  A
C405        O409   1.266       .  A
C405       C3705   1.466       .  S
C406       C3729   1.482       .  S
C408       C4185   1.486       .  S
C410       C3681   1.459       .  S
C411        O412   1.276       .  A
C411       C3693   1.461       .  S
O413        C429   1.272       .  A
O413       Zn419   1.998       .  S
C414        O430   1.274       .  A
C414        O427   1.273       .  A
C414       C3645   1.477       .  S
O415        C428   1.281       .  A
O415       Cd422   2.122       .  S
O416        C434   1.266       .  A
O416       Cd425   2.003       .  S
O417        C431   1.272       .  A
O417       Cd421   2.050       .  S
O418        C429   1.272       .  A
O418       Cd421   2.043       .  S
Zn419       O430   2.015       .  S
Zn419       O432   1.952       .  S
Zn419       O424   1.907       .  S
O420        C431   1.271       .  A
O420       Cd425   2.052       .  S
Cd421       O423   2.012       .  S
Cd421       O424   1.966       .  S
Cd422       O426   2.126       .  S
Cd422       O435   2.122       .  S
Cd422       O424   2.033       .  S
O423        C433   1.268       .  A
O424       Cd425   1.959       .  S
Cd425       O427   2.044       .  S
O426        C433   1.283       .  A
C428        O432   1.267       .  A
C428       C3633   1.471       .  S
C429       C3657   1.480       .  S
C431       C3669   1.479       .  S
C433       C3621   1.479       .  S
C434        O435   1.281       .  A
C434       C4152   1.471       .  S
O436        C452   1.273       .  A
O436       Zn442   2.007   1_455  S
C437        O453   1.273       .  A
C437        O450   1.276       .  A
C437       C3573   1.486       .  S
O438        C451   1.279       .  A
O438       Cd445   2.113       .  S
O439        C457   1.268       .  A
O439       Cd448   2.018       .  S
O440        C454   1.274       .  A
O440       Cd444   2.057       .  S
O441        C452   1.274       .  A
O441       Cd444   2.055   1_455  S
Zn442       O453   2.010       .  S
Zn442       O455   1.932   1_655  S
Zn442       O447   1.908       .  S
O443        C454   1.277       .  A
O443       Cd448   2.076       .  S
Cd444       O446   2.018   1_655  S
Cd444       O447   1.969       .  S
Cd445       O449   2.106       .  S
Cd445       O458   2.113   1_455  S
Cd445       O447   2.034   1_455  S
O446        C456   1.268       .  A
O447       Cd448   1.972       .  S
Cd448       O450   2.073       .  S
O449        C456   1.279       .  A
C451        O455   1.263       .  A
C451       C3609   1.460       .  S
C452       C3597   1.487       .  S
C454       C4176   1.487       .  S
C456       C3561   1.471       .  S
C457        O458   1.280       .  A
C457       C3585   1.470       .  S
O459        C475   1.275       .  A
O459       Zn465   2.012       .  S
C460        O476   1.276       .  A
C460        O473   1.273       .  A
C460       C3528   1.480       .  S
O461        C474   1.278       .  A
O461       Cd468   2.107       .  S
O462        C480   1.267       .  A
O462       Cd471   2.018   1_565  S
O463        C477   1.277       .  A
O463       Cd467   2.077       .  S
O464        C475   1.276       .  A
O464       Cd467   2.067   1_556  S
Zn465       O476   2.022   1_546  S
Zn465       O478   1.963   1_545  S
Zn465       O470   1.914   1_556  S
O466        C477   1.273       .  A
O466       Cd471   2.063       .  S
Cd467       O469   2.014   1_554  S
Cd467       O470   1.977       .  S
Cd468       O472   2.106   1_565  S
Cd468       O481   2.108   1_556  S
Cd468       O470   2.026   1_566  S
O469        C479   1.267       .  A
O470       Cd471   1.966       .  S
Cd471       O473   2.048   1_545  S
O472        C479   1.279       .  A
C474        O478   1.266       .  A
C474       C4092   1.468       .  S
C475       C3513   1.488       .  S
C477       C3501   1.493       .  S
C479       C3552   1.471       .  S
C480        O481   1.279       .  A
C480       C3540   1.463       .  S
C482       C3489   1.500       .  S
C482        N483   1.360       .  A
C482        N487   1.366       .  A
N483        C484   1.358       .  A
C484       C3477   1.496       .  S
C484        N485   1.360       .  A
N485        C486   1.363       .  A
C486       C3468   1.503       .  S
C486        N487   1.367       .  A
N488        C493   1.356       .  A
N488        C492   1.355       .  A
N488        H520   1.037       .  S
N489        C496   1.353       .  A
N489        C497   1.354       .  A
N490        C495   1.350       .  A
N490        C494   1.350       .  A
N490        H521   1.038       .  S
N491        C498   1.351       .  A
N491        C499   1.352       .  A
C492        C500   1.388       .  A
C492        C508   1.422       .  A
C493        C509   1.421       .  A
C493        C501   1.387       .  A
C494        C502   1.389       .  A
C494        C511   1.411       .  A
C495        C510   1.409       .  A
C495        C503   1.386       .  A
C496        C508   1.420       .  A
C496        C504   1.387       .  A
C497        C511   1.417       .  A
C497        C505   1.385       .  A
C498        C506   1.387       .  A
C498        C509   1.415       .  A
C499        C507   1.385       .  A
C499        C510   1.414       .  A
C500        C501   1.376       .  A
C500        H512   1.082       .  S
C501        H513   1.082       .  S
C502        C503   1.369       .  A
C502        H514   1.082       .  S
C503        H515   1.082       .  S
C504        C505   1.378       .  A
C504        H516   1.082       .  S
C505        H517   1.082       .  S
C506        C507   1.376       .  A
C506        H518   1.082       .  S
C507        H519   1.082       .  S
C508       C3453   1.494       .  S
C509       C3480   1.492       .  S
C510       C4020   1.482       .  S
C511       C4452   1.485       .  S
C522       C3417   1.502       .  S
C522        N523   1.362       .  A
C522        N527   1.365       .  A
N523        C524   1.361       .  A
C524       C3429   1.498       .  S
C524        N525   1.360       .  A
N525        C526   1.361       .  A
C526       C3441   1.500   1_565  S
C526        N527   1.364       .  A
N528        C533   1.354       .  A
N528        C532   1.355       .  A
N528        H560   1.035       .  S
N529        C536   1.355       .  A
N529        C537   1.353       .  A
N530        C535   1.353       .  A
N530        C534   1.351       .  A
N530        H561   1.037       .  S
N531        C538   1.353       .  A
N531        C539   1.353       .  A
C532        C540   1.387       .  A
C532        C548   1.419       .  A
C533        C549   1.418       .  A
C533        C541   1.387       .  A
C534        C542   1.387       .  A
C534        C551   1.412       .  A
C535        C550   1.413       .  A
C535        C543   1.387       .  A
C536        C548   1.419       .  A
C536        C544   1.385       .  A
C537        C551   1.420       .  A
C537        C545   1.387       .  A
C538        C546   1.386       .  A
C538        C549   1.417       .  A
C539        C547   1.386       .  A
C539        C550   1.418       .  A
C540        C541   1.376       .  A
C540        H552   1.082       .  S
C541        H553   1.082       .  S
C542        C543   1.373       .  A
C542        H554   1.082       .  S
C543        H555   1.082       .  S
C544        C545   1.376       .  A
C544        H556   1.082       .  S
C545        H557   1.082       .  S
C546        C547   1.375       .  A
C546        H558   1.082       .  S
C547        H559   1.082       .  S
C548       C3420   1.495       .  S
C549       C3405   1.491       .  S
C550       C3636   1.490       .  S
C551       C3396   1.485       .  S
N562        C567   1.356       .  A
N562        C566   1.354       .  A
N562        H594   1.035       .  S
N563        C570   1.354       .  A
N563        C571   1.354       .  A
N564        C569   1.352       .  A
N564        C568   1.352       .  A
N564        H595   1.036       .  S
N565        C572   1.354       .  A
N565        C573   1.353       .  A
C566        C574   1.389       .  A
C566        C582   1.421       .  A
C567        C583   1.418       .  A
C567        C575   1.385       .  A
C568        C576   1.388       .  A
C568        C585   1.413       .  A
C569        C584   1.414       .  A
C569        C577   1.388       .  A
C570        C582   1.420       .  A
C570        C578   1.387       .  A
C571        C585   1.419       .  A
C571        C579   1.387       .  A
C572        C580   1.385       .  A
C572        C583   1.415       .  A
C573        C581   1.387       .  A
C573        C584   1.418       .  A
C574        C575   1.375       .  A
C574        H586   1.082       .  S
C575        H587   1.082       .  S
C576        C577   1.370       .  A
C576        H588   1.082       .  S
C577        H589   1.082       .  S
C578        C579   1.377       .  A
C578        H590   1.082       .  S
C579        H591   1.082       .  S
C580        C581   1.374       .  A
C580        H592   1.082       .  S
C581        H593   1.082       .  S
C582       C3432   1.491       .  S
C583       C3492   1.494       .  S
C584       C3852   1.488       .  S
C585       C3537   1.485       .  S
C596       C3381   1.486       .  S
C596        N597   1.359       .  A
C596        N601   1.359       .  A
N597        C598   1.359       .  A
C598       C3360   1.491       .  S
C598        N599   1.361       .  A
N599        C600   1.362       .  A
C600       C3369   1.491   1_565  S
C600        N601   1.359       .  A
C602       C3345   1.499       .  S
C602        N603   1.361       .  A
C602        N607   1.361       .  A
N603        C604   1.362       .  A
C604       C3456   1.499       .  S
C604        N605   1.362       .  A
N605        C606   1.362       .  A
C606       C3408   1.498       .  S
C606        N607   1.361       .  A
N608        C613   1.357       .  A
N608        C612   1.356       .  A
N608        H640   1.034       .  S
N609        C616   1.351       .  A
N609        C617   1.353       .  A
N610        C615   1.351       .  A
N610        C614   1.352       .  A
N610        H641   1.036       .  S
N611        C618   1.351       .  A
N611        C619   1.352       .  A
C612        C620   1.388       .  A
C612        C628   1.423       .  A
C613        C629   1.422       .  A
C613        C621   1.387       .  A
C614        C622   1.387       .  A
C614        C631   1.411       .  A
C615        C630   1.411       .  A
C615        C623   1.387       .  A
C616        C628   1.418       .  A
C616        C624   1.388       .  A
C617        C631   1.414       .  A
C617        C625   1.384       .  A
C618        C626   1.387       .  A
C618        C629   1.416       .  A
C619        C627   1.385       .  A
C619        C630   1.413       .  A
C620        C621   1.377       .  A
C620        H632   1.082       .  S
C621        H633   1.082       .  S
C622        C623   1.367       .  A
C622        H634   1.082       .  S
C623        H635   1.082       .  S
C624        C625   1.376       .  A
C624        H636   1.082       .  S
C625        H637   1.082       .  S
C626        C627   1.375       .  A
C626        H638   1.082       .  S
C627        H639   1.082       .  S
C628       C3357   1.492       .  S
C629       C3348   1.491       .  S
C630       C3876   1.481       .  S
C631       C3720   1.485       .  S
N642        C647   1.355       .  A
N642        C646   1.357       .  A
N642        H674   1.035       .  S
N643        C650   1.354       .  A
N643        C651   1.353       .  A
N644        C649   1.352       .  A
N644        C648   1.350       .  A
N644        H675   1.036       .  S
N645        C652   1.351       .  A
N645        C653   1.353       .  A
C646        C654   1.386       .  A
C646        C662   1.421       .  A
C647        C663   1.422       .  A
C647        C655   1.388       .  A
C648        C656   1.388       .  A
C648        C665   1.411       .  A
C649        C664   1.410       .  A
C649        C657   1.386       .  A
C650        C662   1.418       .  A
C650        C658   1.386       .  A
C651        C665   1.419       .  A
C651        C659   1.387       .  A
C652        C660   1.387       .  A
C652        C663   1.417       .  A
C653        C661   1.385       .  A
C653        C664   1.415       .  A
C654        C655   1.375       .  A
C654        H666   1.082       .  S
C655        H667   1.082       .  S
C656        C657   1.370       .  A
C656        H668   1.082       .  S
C657        H669   1.082       .  S
C658        C659   1.375       .  A
C658        H670   1.082       .  S
C659        H671   1.082       .  S
C660        C661   1.375       .  A
C660        H672   1.082       .  S
C661        H673   1.083       .  S
C662       C3444   1.497       .  S
C663       C3372   1.487       .  S
C664       C3972   1.485       .  S
C665       C4413   1.484       .  S
N676        C681   1.357       .  A
N676        C680   1.353       .  A
N676        H708   1.036       .  S
N677        C684   1.350       .  A
N677        C685   1.353       .  A
N678        C683   1.348       .  A
N678        C682   1.352       .  A
N678        H709   1.035       .  S
N679        C686   1.353       .  A
N679        C687   1.353       .  A
C680        C688   1.388       .  A
C680        C696   1.420       .  A
C681        C697   1.420       .  A
C681        C689   1.387       .  A
C682        C690   1.387       .  A
C682        C699   1.410       .  A
C683        C698   1.411       .  A
C683        C691   1.388       .  A
C684        C696   1.415       .  A
C684        C692   1.388       .  A
C685        C699   1.413       .  A
C685        C693   1.384       .  A
C686        C694   1.386       .  A
C686        C697   1.418       .  A
C687        C695   1.386       .  A
C687        C698   1.416       .  A
C688        C689   1.377       .  A
C688        H700   1.082       .  S
C689        H701   1.082       .  S
C690        C691   1.369       .  A
C690        H702   1.082       .  S
C691        H703   1.082       .  S
C692        C693   1.376       .  A
C692        H704   1.082       .  S
C693        H705   1.082       .  S
C694        C695   1.378       .  A
C694        H706   1.082       .  S
C695        H707   1.082       .  S
C696       C3384   1.485       .  S
C697       C3465   1.496       .  S
C698       C3600   1.480       .  S
C699       C3333   1.484       .  S
O710        C726   1.274       .  A
O710       Zn716   2.008       .  S
C711        O727   1.274       .  A
C711        O724   1.272       .  A
C711       C3312   1.484       .  S
O712        C725   1.279       .  A
O712       Cd719   2.116       .  S
O713        C731   1.266       .  A
O713       Cd722   2.007   1_565  S
O714        C728   1.274       .  A
O714       Cd718   2.059       .  S
O715        C726   1.274       .  A
O715       Cd718   2.054       .  S
Zn716       O727   2.014   1_545  S
Zn716       O729   1.952   1_545  S
Zn716       O721   1.916       .  S
O717        C728   1.272       .  A
O717       Cd722   2.048       .  S
Cd718       O720   2.018       .  S
Cd718       O721   1.971       .  S
Cd719       O723   2.114   1_565  S
Cd719       O732   2.117       .  S
Cd719       O721   2.035   1_565  S
O720        C730   1.268       .  A
O721       Cd722   1.963       .  S
Cd722       O724   2.049   1_545  S
O723        C730   1.281       .  A
C725        O729   1.266       .  A
C725       C3393   1.470       .  S
C726       C3297   1.484       .  S
C728       C3288   1.484       .  S
C730       C3324   1.472       .  S
C731        O732   1.280       .  A
C731       C4161   1.467       .  S
O733        C749   1.278       .  A
O733       Zn739   2.036       .  S
C734        O750   1.277       .  A
C734        O747   1.276       .  A
C734       C3276   1.486       .  S
O735        C748   1.275       .  A
O735       Cd742   2.084       .  S
O736        C754   1.266       .  A
O736       Cd745   2.010   1_554  S
O737        C751   1.271       .  A
O737       Cd741   2.046       .  S
O738        C749   1.271       .  A
O738       Cd741   2.042       .  S
Zn739       O750   2.027   1_556  S
Zn739       O752   1.951   1_556  S
Zn739       O744   1.914       .  S
O740        C751   1.276       .  A
O740       Cd745   2.073       .  S
Cd741       O743   2.005       .  S
Cd741       O744   1.958       .  S
Cd742       O746   2.087   1_554  S
Cd742       O755   2.074       .  S
Cd742       O744   2.030   1_554  S
O743        C753   1.265       .  A
O744       Cd745   1.971       .  S
Cd745       O747   2.061   1_556  S
O746        C753   1.275       .  A
C748        O752   1.266       .  A
C748       C3225   1.462       .  S
C749       C4080   1.490       .  S
C751       C3264   1.490       .  S
C753       C3240   1.453       .  S
C754        O755   1.274       .  A
C754       C3249   1.458       .  S
C756       C3189   1.498       .  S
C756        N757   1.365       .  A
C756        N761   1.361       .  A
N757        C758   1.365       .  A
C758       C3201   1.503       .  S
C758        N759   1.362       .  A
N759        C760   1.361       .  A
C760       C3213   1.496       .  S
C760        N761   1.360       .  A
C762       C3153   1.496       .  S
C762        N763   1.360       .  A
C762        N767   1.363       .  A
N763        C764   1.359       .  A
C764       C3180   1.493       .  S
C764        N765   1.359       .  A
N765        C766   1.360       .  A
C766       C3165   1.498   1_556  S
C766        N767   1.363       .  A
C768       C3141   1.496       .  S
C768        N769   1.360       .  A
C768        N773   1.361       .  A
N769        C770   1.361       .  A
C770       C3132   1.500       .  S
C770        N771   1.363       .  A
N771        C772   1.363       .  A
C772       C3117   1.498       .  S
C772        N773   1.360       .  A
C774       C3096   1.490       .  S
C774        N775   1.362       .  A
C774        N779   1.357       .  A
N775        C776   1.364       .  A
C776       C3105   1.496   1_556  S
C776        N777   1.362       .  A
N777        C778   1.359       .  A
C778       C3081   1.493       .  S
C778        N779   1.356       .  A
N780        C785   1.354       .  A
N780        C784   1.356       .  A
N780        H812   1.033       .  S
N781        C788   1.352       .  A
N781        C789   1.352       .  A
N782        C787   1.352       .  A
N782        C786   1.351       .  A
N782        H813   1.038       .  S
N783        C790   1.352       .  A
N783        C791   1.353       .  A
C784        C792   1.388       .  A
C784        C800   1.422       .  A
C785        C801   1.421       .  A
C785        C793   1.387       .  A
C786        C794   1.387       .  A
C786        C803   1.410       .  A
C787        C802   1.410       .  A
C787        C795   1.386       .  A
C788        C800   1.417       .  A
C788        C796   1.387       .  A
C789        C803   1.415       .  A
C789        C797   1.386       .  A
C790        C798   1.387       .  A
C790        C801   1.417       .  A
C791        C799   1.386       .  A
C791        C802   1.416       .  A
C792        C793   1.376       .  A
C792        H804   1.082       .  S
C793        H805   1.082       .  S
C794        C795   1.370       .  A
C794        H806   1.082       .  S
C795        H807   1.082       .  S
C796        C797   1.375       .  A
C796        H808   1.082       .  S
C797        H809   1.082       .  S
C798        C799   1.375       .  A
C798        H810   1.082       .  S
C799        H811   1.082       .  S
C800       C3129   1.491       .  S
C801       C3084   1.487       .  S
C802       C3828   1.490       .  S
C803       C3888   1.482       .  S
N814        C819   1.356       .  A
N814        C818   1.355       .  A
N814        H846   1.034       .  S
N815        C822   1.353       .  A
N815        C823   1.354       .  A
N816        C821   1.352       .  A
N816        C820   1.352       .  A
N816        H847   1.035       .  S
N817        C824   1.353       .  A
N817        C825   1.354       .  A
C818        C826   1.388       .  A
C818        C834   1.422       .  A
C819        C835   1.421       .  A
C819        C827   1.387       .  A
C820        C828   1.389       .  A
C820        C837   1.414       .  A
C821        C836   1.414       .  A
C821        C829   1.386       .  A
C822        C834   1.419       .  A
C822        C830   1.387       .  A
C823        C837   1.417       .  A
C823        C831   1.386       .  A
C824        C832   1.386       .  A
C824        C835   1.417       .  A
C825        C833   1.386       .  A
C825        C836   1.418       .  A
C826        C827   1.376       .  A
C826        H838   1.082       .  S
C827        H839   1.082       .  S
C828        C829   1.370       .  A
C828        H840   1.081       .  S
C829        H841   1.082       .  S
C830        C831   1.376       .  A
C830        H842   1.082       .  S
C831        H843   1.082       .  S
C832        C833   1.375       .  A
C832        H844   1.082       .  S
C833        H845   1.082       .  S
C834       C3156   1.493       .  S
C835       C3120   1.494       .  S
C836       C3069   1.491       .  S
C837       C3261   1.486       .  S
N848        C853   1.354       .  A
N848        C852   1.357       .  A
N848        H880   1.037       .  S
N849        C856   1.352       .  A
N849        C857   1.351       .  A
N850        C855   1.350       .  A
N850        C854   1.347       .  A
N850        H881   1.037       .  S
N851        C858   1.350       .  A
N851        C859   1.353       .  A
C852        C860   1.386       .  A
C852        C868   1.419       .  A
C853        C869   1.420       .  A
C853        C861   1.388       .  A
C854        C862   1.388       .  A
C854        C871   1.406       .  A
C855        C870   1.407       .  A
C855        C863   1.387       .  A
C856        C868   1.413       .  A
C856        C864   1.386       .  A
C857        C871   1.413       .  A
C857        C865   1.386       .  A
C858        C866   1.388       .  A
C858        C869   1.415       .  A
C859        C867   1.385       .  A
C859        C870   1.414       .  A
C860        C861   1.375       .  A
C860        H872   1.082       .  S
C861        H873   1.082       .  S
C862        C863   1.370       .  A
C862        H874   1.083       .  S
C863        H875   1.082       .  S
C864        C865   1.377       .  A
C864        H876   1.082       .  S
C865        H877   1.082       .  S
C866        C867   1.378       .  A
C866        H878   1.082       .  S
C867        H879   1.082       .  S
C868       C3204   1.494       .  S
C869       C3144   1.486       .  S
C870       C4461   1.483       .  S
C871       C3948   1.474       .  S
N882        C887   1.356       .  A
N882        C886   1.354       .  A
N882        H914   1.031       .  S
N883        C890   1.352       .  A
N883        C891   1.353       .  A
N884        C889   1.350       .  A
N884        C888   1.352       .  A
N884        H915   1.034       .  S
N885        C892   1.354       .  A
N885        C893   1.353       .  A
C886        C894   1.389       .  A
C886        C902   1.423       .  A
C887        C903   1.422       .  A
C887        C895   1.387       .  A
C888        C896   1.387       .  A
C888        C905   1.412       .  A
C889        C904   1.413       .  A
C889        C897   1.388       .  A
C890        C902   1.418       .  A
C890        C898   1.386       .  A
C891        C905   1.417       .  A
C891        C899   1.386       .  A
C892        C900   1.386       .  A
C892        C903   1.420       .  A
C893        C901   1.387       .  A
C893        C904   1.419       .  A
C894        C895   1.374       .  A
C894        H906   1.082       .  S
C895        H907   1.082       .  S
C896        C897   1.370       .  A
C896        H908   1.082       .  S
C897        H909   1.082       .  S
C898        C899   1.375       .  A
C898        H910   1.082       .  S
C899        H911   1.082       .  S
C900        C901   1.374       .  A
C900        H912   1.082       .  S
C901        H913   1.082       .  S
C902       C3108   1.488       .  S
C903       C3168   1.494       .  S
C904       C4404   1.482       .  S
C905       C4053   1.484       .  S
N916        C921   1.353       .  A
N916        C920   1.354       .  A
N916        H948   1.035       .  S
N917        C924   1.354       .  A
N917        C925   1.353       .  A
N918        C923   1.352       .  A
N918        C922   1.350       .  A
N918        H949   1.037       .  S
N919        C926   1.351       .  A
N919        C927   1.352       .  A
C920        C928   1.387       .  A
C920        C936   1.419       .  A
C921        C937   1.417       .  A
C921        C929   1.387       .  A
C922        C930   1.388       .  A
C922        C939   1.411       .  A
C923        C938   1.410       .  A
C923        C931   1.386       .  A
C924        C936   1.419       .  A
C924        C932   1.386       .  A
C925        C939   1.418       .  A
C925        C933   1.386       .  A
C926        C934   1.386       .  A
C926        C937   1.413       .  A
C927        C935   1.386       .  A
C927        C938   1.414       .  A
C928        C929   1.374       .  A
C928        H940   1.082       .  S
C929        H941   1.082       .  S
C930        C931   1.371       .  A
C930        H942   1.082       .  S
C931        H943   1.082       .  S
C932        C933   1.379       .  A
C932        H944   1.082       .  S
C933        H945   1.082       .  S
C934        C935   1.374       .  A
C934        H946   1.082       .  S
C935        H947   1.082       .  S
C936       C3192   1.495       .  S
C937       C3177   1.485       .  S
C938       C3549   1.486       .  S
C939       C3732   1.483       .  S
N950        C955   1.354       .  A
N950        C954   1.356       .  A
N950        H982   1.033       .  S
N951        C958   1.353       .  A
N951        C959   1.352       .  A
N952        C957   1.351       .  A
N952        C956   1.349       .  A
N952        H983   1.033       .  S
N953        C960   1.352       .  A
N953        C961   1.353       .  A
C954        C962   1.387       .  A
C954        C970   1.420       .  A
C955        C971   1.422       .  A
C955        C963   1.388       .  A
C956        C964   1.388       .  A
C956        C973   1.412       .  A
C957        C972   1.411       .  A
C957        C965   1.387       .  A
C958        C970   1.417       .  A
C958        C966   1.386       .  A
C959        C973   1.416       .  A
C959        C967   1.386       .  A
C960        C968   1.387       .  A
C960        C971   1.418       .  A
C961        C969   1.386       .  A
C961        C972   1.417       .  A
C962        C963   1.374       .  A
C962        H974   1.082       .  S
C963        H975   1.082       .  S
C964        C965   1.371       .  A
C964        H976   1.082       .  S
C965        H977   1.082       .  S
C966        C967   1.375       .  A
C966        H978   1.082       .  S
C967        H979   1.082       .  S
C968        C969   1.374       .  A
C968        H980   1.082       .  S
C969        H981   1.082       .  S
C970       C3216   1.492       .  S
C971       C3093   1.489       .  S
C972       C3780   1.485       .  S
C973       C3057   1.478       .  S
C984       C3048   1.489       .  S
C984        N985   1.361       .  A
C984        N989   1.360       .  A
N985        C986   1.361       .  A
C986       C3033   1.492       .  S
C986        N987   1.358       .  A
N987        C988   1.358       .  A
C988       C3021   1.485       .  S
C988        N989   1.360       .  A
N990        C995   1.353       .  A
N990        C994   1.353       .  A
N990       H1022   1.038       .  S
N991        C998   1.349       .  A
N991        C999   1.349       .  A
N992        C997   1.349       .  A
N992        C996   1.348       .  A
N992       H1023   1.038       .  S
N993       C1000   1.349       .  A
N993       C1001   1.350       .  A
C994       C1002   1.386       .  A
C994       C1010   1.415       .  A
C995       C1011   1.415       .  A
C995       C1003   1.388       .  A
C996       C1004   1.388       .  A
C996       C1013   1.405       .  A
C997       C1012   1.404       .  A
C997       C1005   1.386       .  A
C998       C1010   1.411       .  A
C998       C1006   1.387       .  A
C999       C1013   1.409       .  A
C999       C1007   1.385       .  A
C1000      C1008   1.387       .  A
C1000      C1011   1.410       .  A
C1001      C1009   1.385       .  A
C1001      C1012   1.410       .  A
C1002      C1003   1.376       .  A
C1002      H1014   1.082       .  S
C1003      H1015   1.082       .  S
C1004      C1005   1.369       .  A
C1004      H1016   1.082       .  S
C1005      H1017   1.082       .  S
C1006      C1007   1.376       .  A
C1006      H1018   1.082       .  S
C1007      H1019   1.082       .  S
C1008      C1009   1.377       .  A
C1008      H1020   1.082       .  S
C1009      H1021   1.082       .  S
C1010      C3024   1.485       .  S
C1011      C3009   1.481       .  S
C1012      C4473   1.476       .  S
C1013      C3660   1.473       .  S
C1024      C2973   1.491       .  S
C1024      N1025   1.361       .  A
C1024      N1029   1.358       .  A
N1025      C1026   1.362       .  A
C1026      C2988   1.499       .  S
C1026      N1027   1.365       .  A
N1027      C1028   1.365       .  A
C1028      C2997   1.501   1_554  S
C1028      N1029   1.359       .  A
C1030      C2940   1.483       .  S
C1030      N1031   1.360       .  A
C1030      N1035   1.360       .  A
N1031      C1032   1.359       .  A
C1032      C2949   1.485       .  S
C1032      N1033   1.359       .  A
N1033      C1034   1.359       .  A
C1034      C2961   1.489   1_554  S
C1034      N1035   1.360       .  A
C1036      C2925   1.489       .  S
C1036      N1037   1.360       .  A
C1036      N1041   1.359       .  A
N1037      C1038   1.359       .  A
C1038      C2913   1.489       .  S
C1038      N1039   1.359       .  A
N1039      C1040   1.359       .  A
C1040      C3012   1.489       .  S
C1040      N1041   1.358       .  A
N1042      C1047   1.354       .  A
N1042      C1046   1.351       .  A
N1042      H1074   1.039       .  S
N1043      C1050   1.351       .  A
N1043      C1051   1.352       .  A
N1044      C1049   1.348       .  A
N1044      C1048   1.350       .  A
N1044      H1075   1.038       .  S
N1045      C1052   1.349       .  A
N1045      C1053   1.348       .  A
C1046      C1054   1.387       .  A
C1046      C1062   1.414       .  A
C1047      C1063   1.413       .  A
C1047      C1055   1.386       .  A
C1048      C1056   1.387       .  A
C1048      C1065   1.407       .  A
C1049      C1064   1.408       .  A
C1049      C1057   1.389       .  A
C1050      C1062   1.414       .  A
C1050      C1058   1.387       .  A
C1051      C1065   1.412       .  A
C1051      C1059   1.385       .  A
C1052      C1060   1.386       .  A
C1052      C1063   1.410       .  A
C1053      C1061   1.386       .  A
C1053      C1064   1.408       .  A
C1054      C1055   1.375       .  A
C1054      H1066   1.082       .  S
C1055      H1067   1.082       .  S
C1056      C1057   1.370       .  A
C1056      H1068   1.083       .  S
C1057      H1069   1.082       .  S
C1058      C1059   1.377       .  A
C1058      H1070   1.082       .  S
C1059      H1071   1.082       .  S
C1060      C1061   1.377       .  A
C1060      H1072   1.082       .  S
C1061      H1073   1.082       .  S
C1062      C2937   1.489       .  S
C1063      C2916   1.484       .  S
C1064      C4008   1.472       .  S
C1065      C3840   1.481       .  S
N1076      C1081   1.356       .  A
N1076      C1080   1.350       .  A
N1076      H1108   1.033       .  S
N1077      C1084   1.351       .  A
N1077      C1085   1.353       .  A
N1078      C1083   1.349       .  A
N1078      C1082   1.352       .  A
N1078      H1109   1.036       .  S
N1079      C1086   1.352       .  A
N1079      C1087   1.349       .  A
C1080      C1088   1.390       .  A
C1080      C1096   1.419       .  A
C1081      C1097   1.417       .  A
C1081      C1089   1.386       .  A
C1082      C1090   1.387       .  A
C1082      C1099   1.410       .  A
C1083      C1098   1.410       .  A
C1083      C1091   1.388       .  A
C1084      C1096   1.417       .  A
C1084      C1092   1.387       .  A
C1085      C1099   1.416       .  A
C1085      C1093   1.385       .  A
C1086      C1094   1.386       .  A
C1086      C1097   1.413       .  A
C1087      C1095   1.388       .  A
C1087      C1098   1.414       .  A
C1088      C1089   1.374       .  A
C1088      H1100   1.082       .  S
C1089      H1101   1.082       .  S
C1090      C1091   1.369       .  A
C1090      H1102   1.082       .  S
C1091      H1103   1.082       .  S
C1092      C1093   1.375       .  A
C1092      H1104   1.082       .  S
C1093      H1105   1.082       .  S
C1094      C1095   1.371       .  A
C1094      H1106   1.082       .  S
C1095      H1107   1.082       .  S
C1096      C2928   1.479       .  S
C1097      C2976   1.490       .  S
C1098      C3252   1.473       .  S
C1099      C4389   1.486       .  S
N1110      C1115   1.353       .  A
N1110      C1114   1.355       .  A
N1110      H1142   1.036       .  S
N1111      C1118   1.353       .  A
N1111      C1119   1.353       .  A
N1112      C1117   1.353       .  A
N1112      C1116   1.350       .  A
N1112      H1143   1.037       .  S
N1113      C1120   1.351       .  A
N1113      C1121   1.352       .  A
C1114      C1122   1.387       .  A
C1114      C1130   1.418       .  A
C1115      C1131   1.418       .  A
C1115      C1123   1.388       .  A
C1116      C1124   1.388       .  A
C1116      C1133   1.412       .  A
C1117      C1132   1.411       .  A
C1117      C1125   1.386       .  A
C1118      C1130   1.417       .  A
C1118      C1126   1.386       .  A
C1119      C1133   1.416       .  A
C1119      C1127   1.386       .  A
C1120      C1128   1.386       .  A
C1120      C1131   1.414       .  A
C1121      C1129   1.386       .  A
C1121      C1132   1.414       .  A
C1122      C1123   1.375       .  A
C1122      H1134   1.082       .  S
C1123      H1135   1.082       .  S
C1124      C1125   1.371       .  A
C1124      H1136   1.082       .  S
C1125      H1137   1.082       .  S
C1126      C1127   1.377       .  A
C1126      H1138   1.082       .  S
C1127      H1139   1.082       .  S
C1128      C1129   1.375       .  A
C1128      H1140   1.082       .  S
C1129      H1141   1.082       .  S
C1130      C3000   1.492       .  S
C1131      C2964   1.485       .  S
C1132      C3900   1.484       .  S
C1133      C2901   1.484       .  S
N1144      C1149   1.354       .  A
N1144      C1148   1.356       .  A
N1144      H1176   1.034       .  S
N1145      C1152   1.354       .  A
N1145      C1153   1.352       .  A
N1146      C1151   1.352       .  A
N1146      C1150   1.349       .  A
N1146      H1177   1.036       .  S
N1147      C1154   1.351       .  A
N1147      C1155   1.353       .  A
C1148      C1156   1.387       .  A
C1148      C1164   1.421       .  A
C1149      C1165   1.420       .  A
C1149      C1157   1.388       .  A
C1150      C1158   1.389       .  A
C1150      C1167   1.411       .  A
C1151      C1166   1.409       .  A
C1151      C1159   1.386       .  A
C1152      C1164   1.418       .  A
C1152      C1160   1.386       .  A
C1153      C1167   1.416       .  A
C1153      C1161   1.386       .  A
C1154      C1162   1.387       .  A
C1154      C1165   1.416       .  A
C1155      C1163   1.385       .  A
C1155      C1166   1.416       .  A
C1156      C1157   1.377       .  A
C1156      H1168   1.082       .  S
C1157      H1169   1.082       .  S
C1158      C1159   1.368       .  A
C1158      H1170   1.082       .  S
C1159      H1171   1.082       .  S
C1160      C1161   1.377       .  A
C1160      H1172   1.082       .  S
C1161      H1173   1.082       .  S
C1162      C1163   1.374       .  A
C1162      H1174   1.082       .  S
C1163      H1175   1.082       .  S
C1164      C2985   1.496       .  S
C1165      C3036   1.485       .  S
C1166      C3588   1.489       .  S
C1167      C3768   1.478       .  S
N1178      C1183   1.355       .  A
N1178      C1182   1.355       .  A
N1178      H1210   1.036       .  S
N1179      C1186   1.351       .  A
N1179      C1187   1.352       .  A
N1180      C1185   1.350       .  A
N1180      C1184   1.349       .  A
N1180      H1211   1.037       .  S
N1181      C1188   1.351       .  A
N1181      C1189   1.353       .  A
C1182      C1190   1.387       .  A
C1182      C1198   1.420       .  A
C1183      C1199   1.420       .  A
C1183      C1191   1.388       .  A
C1184      C1192   1.388       .  A
C1184      C1201   1.408       .  A
C1185      C1200   1.407       .  A
C1185      C1193   1.387       .  A
C1186      C1198   1.416       .  A
C1186      C1194   1.387       .  A
C1187      C1201   1.412       .  A
C1187      C1195   1.385       .  A
C1188      C1196   1.387       .  A
C1188      C1199   1.416       .  A
C1189      C1197   1.385       .  A
C1189      C1200   1.413       .  A
C1190      C1191   1.375       .  A
C1190      H1202   1.082       .  S
C1191      H1203   1.082       .  S
C1192      C1193   1.369       .  A
C1192      H1204   1.082       .  S
C1193      H1205   1.082       .  S
C1194      C1195   1.376       .  A
C1194      H1206   1.082       .  S
C1195      H1207   1.082       .  S
C1196      C1197   1.377       .  A
C1196      H1208   1.082       .  S
C1197      H1209   1.082       .  S
C1198      C3045   1.491       .  S
C1199      C2952   1.491       .  S
C1200      C3525   1.482       .  S
C1201      C3309   1.479       .  S
O1212      C1228   1.273       .  A
O1212     Zn1218   2.000       .  S
C1213      O1229   1.272       .  A
C1213      O1226   1.272       .  A
C1213      C2889   1.482       .  S
O1214      C1227   1.279       .  A
O1214     Cd1221   2.114       .  S
O1215      C1233   1.267       .  A
O1215     Cd1224   2.012       .  S
O1216      C1230   1.276       .  A
O1216     Cd1220   2.073       .  S
O1217      C1228   1.276       .  A
O1217     Cd1220   2.071       .  S
Zn1218     O1229   1.991       .  S
Zn1218     O1231   1.941       .  S
Zn1218     O1223   1.900       .  S
O1219      C1230   1.274       .  A
O1219     Cd1224   2.051       .  S
Cd1220     O1222   2.024       .  S
Cd1220     O1223   1.975       .  S
Cd1221     O1225   2.120       .  S
Cd1221     O1234   2.121       .  S
Cd1221     O1223   2.029       .  S
O1222      C1232   1.268       .  A
O1223     Cd1224   1.972       .  S
Cd1224     O1226   2.057       .  S
O1225      C1232   1.282       .  A
C1227      O1231   1.265       .  A
C1227      C2865   1.467       .  S
C1228      C2877   1.483       .  S
C1230      C2904   1.481       .  S
C1232      C3072   1.478       .  S
C1233      O1234   1.281       .  A
C1233      C4116   1.471       .  S
O1235      C1251   1.276       .  A
O1235     Zn1241   2.037       .  S
C1236      O1252   1.276       .  A
C1236      O1249   1.275       .  A
C1236      C4137   1.483       .  S
O1237      C1250   1.280       .  A
O1237     Cd1244   2.114   1_655  S
O1238      C1256   1.268       .  A
O1238     Cd1247   2.020   1_455  S
O1239      C1253   1.274       .  A
O1239     Cd1243   2.062   1_455  S
O1240      C1251   1.274       .  A
O1240     Cd1243   2.056   1_545  S
Zn1241     O1252   2.024   1_545  S
Zn1241     O1254   1.950       .  S
Zn1241     O1246   1.922   1_545  S
O1242      C1253   1.274       .  A
O1242     Cd1247   2.064   1_455  S
Cd1243     O1245   2.009   1_665  S
Cd1243     O1246   1.970       .  S
Cd1244     O1248   2.121       .  S
Cd1244     O1257   2.121   1_545  S
Cd1244     O1246   2.036   1_445  S
O1245      C1255   1.266       .  A
O1246     Cd1247   1.971       .  S
Cd1247     O1249   2.056       .  S
O1248      C1255   1.281       .  A
C1250      O1254   1.266       .  A
C1250      C2829   1.470       .  S
C1251      C2856   1.490       .  S
C1253      C3336   1.490       .  S
C1255      C2820   1.475       .  S
C1256      O1257   1.281       .  A
C1256      C2841   1.474       .  S
C1258      C2793   1.490       .  S
C1258      N1259   1.360       .  A
C1258      N1263   1.360       .  A
N1259      C1260   1.359       .  A
C1260      C2805   1.493       .  S
C1260      N1261   1.361       .  A
N1261      C1262   1.362       .  A
C1262      C2781   1.495       .  S
C1262      N1263   1.360       .  A
C1264      C2769   1.491       .  S
C1264      N1265   1.359       .  A
C1264      N1269   1.363       .  A
N1265      C1266   1.358       .  A
C1266      C2745   1.491       .  S
C1266      N1267   1.358       .  A
N1267      C1268   1.361       .  A
C1268      C2757   1.495       .  S
C1268      N1269   1.364       .  A
C1270      C2736   1.490       .  S
C1270      N1271   1.359       .  A
C1270      N1275   1.360       .  A
N1271      C1272   1.359       .  A
C1272      C2724   1.492       .  S
C1272      N1273   1.360       .  A
N1273      C1274   1.361       .  A
C1274      C2709   1.494       .  S
C1274      N1275   1.362       .  A
N1276      C1281   1.354       .  A
N1276      C1280   1.354       .  A
N1276      H1308   1.036       .  S
N1277      C1284   1.350       .  A
N1277      C1285   1.352       .  A
N1278      C1283   1.349       .  A
N1278      C1282   1.350       .  A
N1278      H1309   1.036       .  S
N1279      C1286   1.350       .  A
N1279      C1287   1.351       .  A
C1280      C1288   1.388       .  A
C1280      C1296   1.418       .  A
C1281      C1297   1.417       .  A
C1281      C1289   1.387       .  A
C1282      C1290   1.388       .  A
C1282      C1299   1.409       .  A
C1283      C1298   1.407       .  A
C1283      C1291   1.387       .  A
C1284      C1296   1.415       .  A
C1284      C1292   1.387       .  A
C1285      C1299   1.412       .  A
C1285      C1293   1.385       .  A
C1286      C1294   1.387       .  A
C1286      C1297   1.414       .  A
C1287      C1295   1.385       .  A
C1287      C1298   1.411       .  A
C1288      C1289   1.377       .  A
C1288      H1300   1.082       .  S
C1289      H1301   1.082       .  S
C1290      C1291   1.369       .  A
C1290      H1302   1.082       .  S
C1291      H1303   1.082       .  S
C1292      C1293   1.378       .  A
C1292      H1304   1.082       .  S
C1293      H1305   1.082       .  S
C1294      C1295   1.376       .  A
C1294      H1306   1.082       .  S
C1295      H1307   1.082       .  S
C1296      C2748   1.486       .  S
C1297      C2721   1.486       .  S
C1298      C4377   1.479       .  S
C1299      C3300   1.479       .  S
N1310      C1315   1.353       .  A
N1310      C1314   1.355       .  A
N1310      H1342   1.034       .  S
N1311      C1318   1.352       .  A
N1311      C1319   1.351       .  A
N1312      C1317   1.352       .  A
N1312      C1316   1.351       .  A
N1312      H1343   1.035       .  S
N1313      C1320   1.352       .  A
N1313      C1321   1.353       .  A
C1314      C1322   1.387       .  A
C1314      C1330   1.418       .  A
C1315      C1331   1.418       .  A
C1315      C1323   1.388       .  A
C1316      C1324   1.386       .  A
C1316      C1333   1.411       .  A
C1317      C1332   1.415       .  A
C1317      C1325   1.389       .  A
C1318      C1330   1.415       .  A
C1318      C1326   1.386       .  A
C1319      C1333   1.416       .  A
C1319      C1327   1.387       .  A
C1320      C1328   1.386       .  A
C1320      C1331   1.417       .  A
C1321      C1329   1.387       .  A
C1321      C1332   1.418       .  A
C1322      C1323   1.376       .  A
C1322      H1334   1.082       .  S
C1323      H1335   1.082       .  S
C1324      C1325   1.370       .  A
C1324      H1336   1.082       .  S
C1325      H1337   1.080       .  S
C1326      C1327   1.374       .  A
C1326      H1338   1.082       .  S
C1327      H1339   1.082       .  S
C1328      C1329   1.375       .  A
C1328      H1340   1.082       .  S
C1329      H1341   1.082       .  S
C1330      C2784   1.491       .  S
C1331      C2712   1.487       .  S
C1332      C3933   1.487       .  S
C1333      C3708   1.482       .  S
C1344      C2685   1.500       .  S
C1344      N1345   1.364       .  A
C1344      N1349   1.361       .  A
N1345      C1346   1.365       .  A
C1346      C2697   1.495       .  S
C1346      N1347   1.360       .  A
N1347      C1348   1.358       .  A
C1348      C2673   1.495       .  S
C1348      N1349   1.358       .  A
N1350      C1355   1.356       .  A
N1350      C1354   1.355       .  A
N1350      H1382   1.035       .  S
N1351      C1358   1.352       .  A
N1351      C1359   1.353       .  A
N1352      C1357   1.350       .  A
N1352      C1356   1.349       .  A
N1352      H1383   1.040       .  S
N1353      C1360   1.351       .  A
N1353      C1361   1.353       .  A
C1354      C1362   1.388       .  A
C1354      C1370   1.422       .  A
C1355      C1371   1.422       .  A
C1355      C1363   1.387       .  A
C1356      C1364   1.387       .  A
C1356      C1373   1.406       .  A
C1357      C1372   1.405       .  A
C1357      C1365   1.386       .  A
C1358      C1370   1.417       .  A
C1358      C1366   1.387       .  A
C1359      C1373   1.415       .  A
C1359      C1367   1.385       .  A
C1360      C1368   1.387       .  A
C1360      C1371   1.416       .  A
C1361      C1369   1.385       .  A
C1361      C1372   1.414       .  A
C1362      C1363   1.376       .  A
C1362      H1374   1.082       .  S
C1363      H1375   1.082       .  S
C1364      C1365   1.371       .  A
C1364      H1376   1.083       .  S
C1365      H1377   1.082       .  S
C1366      C1367   1.378       .  A
C1366      H1378   1.082       .  S
C1367      H1379   1.082       .  S
C1368      C1369   1.376       .  A
C1368      H1380   1.082       .  S
C1369      H1381   1.082       .  S
C1370      C2676   1.490       .  S
C1371      C2733   1.492       .  S
C1372      C4488   1.485       .  S
C1373      C2880   1.486       .  S
N1384      C1389   1.354       .  A
N1384      C1388   1.355       .  A
N1384      H1416   1.031       .  S
N1385      C1392   1.352       .  A
N1385      C1393   1.351       .  A
N1386      C1391   1.353       .  A
N1386      C1390   1.351       .  A
N1386      H1417   1.035       .  S
N1387      C1394   1.353       .  A
N1387      C1395   1.354       .  A
C1388      C1396   1.388       .  A
C1388      C1404   1.421       .  A
C1389      C1405   1.421       .  A
C1389      C1397   1.388       .  A
C1390      C1398   1.387       .  A
C1390      C1407   1.412       .  A
C1391      C1406   1.413       .  A
C1391      C1399   1.388       .  A
C1392      C1404   1.417       .  A
C1392      C1400   1.387       .  A
C1393      C1407   1.414       .  A
C1393      C1401   1.386       .  A
C1394      C1402   1.387       .  A
C1394      C1405   1.420       .  A
C1395      C1403   1.386       .  A
C1395      C1406   1.419       .  A
C1396      C1397   1.374       .  A
C1396      H1408   1.082       .  S
C1397      H1409   1.082       .  S
C1398      C1399   1.368       .  A
C1398      H1410   1.082       .  S
C1399      H1411   1.082       .  S
C1400      C1401   1.375       .  A
C1400      H1412   1.082       .  S
C1401      H1413   1.082       .  S
C1402      C1403   1.376       .  A
C1402      H1414   1.082       .  S
C1403      H1415   1.082       .  S
C1404      C2760   1.489       .  S
C1405      C2808   1.491       .  S
C1406      C3912   1.490       .  S
C1407      C3648   1.479       .  S
N1418      C1423   1.352       .  A
N1418      C1422   1.354       .  A
N1418      H1450   1.036       .  S
N1419      C1426   1.354       .  A
N1419      C1427   1.352       .  A
N1420      C1425   1.353       .  A
N1420      C1424   1.352       .  A
N1420      H1451   1.037       .  S
N1421      C1428   1.353       .  A
N1421      C1429   1.353       .  A
C1422      C1430   1.387       .  A
C1422      C1438   1.416       .  A
C1423      C1439   1.415       .  A
C1423      C1431   1.387       .  A
C1424      C1432   1.387       .  A
C1424      C1441   1.413       .  A
C1425      C1440   1.413       .  A
C1425      C1433   1.387       .  A
C1426      C1438   1.416       .  A
C1426      C1434   1.385       .  A
C1427      C1441   1.418       .  A
C1427      C1435   1.387       .  A
C1428      C1436   1.386       .  A
C1428      C1439   1.415       .  A
C1429      C1437   1.386       .  A
C1429      C1440   1.417       .  A
C1430      C1431   1.375       .  A
C1430      H1442   1.082       .  S
C1431      H1443   1.082       .  S
C1432      C1433   1.373       .  A
C1432      H1444   1.082       .  S
C1433      H1445   1.082       .  S
C1434      C1435   1.375       .  A
C1434      H1446   1.082       .  S
C1435      H1447   1.082       .  S
C1436      C1437   1.375       .  A
C1436      H1448   1.082       .  S
C1437      H1449   1.082       .  S
C1438      C2772   1.492       .  S
C1439      C2700   1.486       .  S
C1440      C2664   1.490       .  S
C1441      C2832   1.487       .  S
N1452      C1457   1.356       .  A
N1452      C1456   1.353       .  A
N1452      H1484   1.035       .  S
N1453      C1460   1.351       .  A
N1453      C1461   1.354       .  A
N1454      C1459   1.348       .  A
N1454      C1458   1.351       .  A
N1454      H1485   1.034       .  S
N1455      C1462   1.353       .  A
N1455      C1463   1.351       .  A
C1456      C1464   1.388       .  A
C1456      C1472   1.420       .  A
C1457      C1473   1.419       .  A
C1457      C1465   1.386       .  A
C1458      C1466   1.387       .  A
C1458      C1475   1.410       .  A
C1459      C1474   1.410       .  A
C1459      C1467   1.389       .  A
C1460      C1472   1.417       .  A
C1460      C1468   1.387       .  A
C1461      C1475   1.415       .  A
C1461      C1469   1.385       .  A
C1462      C1470   1.386       .  A
C1462      C1473   1.416       .  A
C1463      C1471   1.387       .  A
C1463      C1474   1.416       .  A
C1464      C1465   1.376       .  A
C1464      H1476   1.082       .  S
C1465      H1477   1.082       .  S
C1466      C1467   1.370       .  A
C1466      H1478   1.082       .  S
C1467      H1479   1.082       .  S
C1468      C1469   1.376       .  A
C1468      H1480   1.082       .  S
C1469      H1481   1.082       .  S
C1470      C1471   1.375       .  A
C1470      H1482   1.082       .  S
C1471      H1483   1.082       .  S
C1472      C2796   1.488       .  S
C1473      C2688   1.493       .  S
C1474      C3237   1.475       .  S
C1475      C3516   1.485       .  S
C1486      C2637   1.490   1_455  S
C1486      N1487   1.362       .  A
C1486      N1491   1.365       .  A
N1487      C1488   1.359       .  A
C1488      C2652   1.491       .  S
C1488      N1489   1.355       .  A
N1489      C1490   1.357       .  A
C1490      C2625   1.488       .  S
C1490      N1491   1.362       .  A
N1492      C1497   1.353       .  A
N1492      C1496   1.352       .  A
N1492      H1524   1.045       .  S
N1493      C1500   1.349       .  A
N1493      C1501   1.343       .  A
N1494      C1499   1.353       .  A
N1494      C1498   1.357       .  A
N1494      H1525   1.038       .  S
N1495      C1502   1.352       .  A
N1495      C1503   1.345       .  A
C1496      C1504   1.385       .  A
C1496      C1512   1.407       .  A
C1497      C1513   1.401       .  A
C1497      C1505   1.385       .  A
C1498      C1506   1.387       .  A
C1498      C1515   1.416       .  A
C1499      C1514   1.417       .  A
C1499      C1507   1.389       .  A
C1500      C1512   1.415       .  A
C1500      C1508   1.386       .  A
C1501      C1515   1.413       .  A
C1501      C1509   1.388       .  A
C1502      C1510   1.383       .  A
C1502      C1513   1.411       .  A
C1503      C1511   1.389       .  A
C1503      C1514   1.413       .  A
C1504      C1505   1.370       .  A
C1504      H1516   1.083       .  S
C1505      H1517   1.083       .  S
C1506      C1507   1.367       .  A
C1506      H1518   1.082       .  S
C1507      H1519   1.082       .  S
C1508      C1509   1.385       .  A
C1508      H1520   1.082       .  S
C1509      H1521   1.082       .  S
C1510      C1511   1.380       .  A
C1510      H1522   1.082       .  S
C1511      H1523   1.082       .  S
C1512      C2628   1.496       .  S
C1513      C2613   1.486       .  S
C1514      C4044   1.475       .  S
C1515      C3612   1.481       .  S
C1526      C2580   1.498       .  S
C1526      N1527   1.360       .  A
C1526      N1531   1.363       .  A
N1527      C1528   1.358       .  A
C1528      C2592   1.490       .  S
C1528      N1529   1.361       .  A
N1529      C1530   1.362       .  A
C1530      C2604   1.496       .  S
C1530      N1531   1.363       .  A
C1532      C2565   1.493       .  S
C1532      N1533   1.359       .  A
C1532      N1537   1.358       .  A
N1533      C1534   1.362       .  A
C1534      C2616   1.499       .  S
C1534      N1535   1.363       .  A
N1535      C1536   1.363       .  A
C1536      C2556   1.496       .  S
C1536      N1537   1.359       .  A
N1538      C1543   1.354       .  A
N1538      C1542   1.354       .  A
N1538      H1570   1.032       .  S
N1539      C1546   1.354       .  A
N1539      C1547   1.352       .  A
N1540      C1545   1.353       .  A
N1540      C1544   1.352       .  A
N1540      H1571   1.035       .  S
N1541      C1548   1.353       .  A
N1541      C1549   1.352       .  A
C1542      C1550   1.387       .  A
C1542      C1558   1.419       .  A
C1543      C1559   1.420       .  A
C1543      C1551   1.388       .  A
C1544      C1552   1.387       .  A
C1544      C1561   1.413       .  A
C1545      C1560   1.413       .  A
C1545      C1553   1.387       .  A
C1546      C1558   1.418       .  A
C1546      C1554   1.386       .  A
C1547      C1561   1.418       .  A
C1547      C1555   1.387       .  A
C1548      C1556   1.386       .  A
C1548      C1559   1.416       .  A
C1549      C1557   1.387       .  A
C1549      C1560   1.417       .  A
C1550      C1551   1.374       .  A
C1550      H1562   1.082       .  S
C1551      H1563   1.082       .  S
C1552      C1553   1.373       .  A
C1552      H1564   1.082       .  S
C1553      H1565   1.082       .  S
C1554      C1555   1.375       .  A
C1554      H1566   1.082       .  S
C1555      H1567   1.082       .  S
C1556      C1557   1.373       .  A
C1556      H1568   1.082       .  S
C1557      H1569   1.082       .  S
C1558      C2577   1.490       .  S
C1559      C2553   1.488       .  S
C1560      C4437   1.486       .  S
C1561      C3864   1.483       .  S
C1572      C2541   1.484       .  S
C1572      N1573   1.358       .  A
C1572      N1577   1.359       .  A
N1573      C1574   1.358       .  A
C1574      C2517   1.488   1_455  S
C1574      N1575   1.359       .  A
N1575      C1576   1.360       .  A
C1576      C2532   1.488       .  S
C1576      N1577   1.360       .  A
N1578      C1583   1.355       .  A
N1578      C1582   1.352       .  A
N1578      H1610   1.038       .  S
N1579      C1586   1.350       .  A
N1579      C1587   1.352       .  A
N1580      C1585   1.350       .  A
N1580      C1584   1.354       .  A
N1580      H1611   1.038       .  S
N1581      C1588   1.352       .  A
N1581      C1589   1.351       .  A
C1582      C1590   1.388       .  A
C1582      C1598   1.415       .  A
C1583      C1599   1.415       .  A
C1583      C1591   1.386       .  A
C1584      C1592   1.386       .  A
C1584      C1601   1.411       .  A
C1585      C1600   1.412       .  A
C1585      C1593   1.388       .  A
C1586      C1598   1.413       .  A
C1586      C1594   1.386       .  A
C1587      C1601   1.414       .  A
C1587      C1595   1.386       .  A
C1588      C1596   1.386       .  A
C1588      C1599   1.414       .  A
C1589      C1597   1.386       .  A
C1589      C1600   1.413       .  A
C1590      C1591   1.374       .  A
C1590      H1602   1.082       .  S
C1591      H1603   1.082       .  S
C1592      C1593   1.372       .  A
C1592      H1604   1.082       .  S
C1593      H1605   1.082       .  S
C1594      C1595   1.376       .  A
C1594      H1606   1.082       .  S
C1595      H1607   1.082       .  S
C1596      C1597   1.376       .  A
C1596      H1608   1.082       .  S
C1597      H1609   1.082       .  S
C1598      C2529   1.482       .  S
C1599      C2568   1.492       .  S
C1600      C3984   1.481       .  S
C1601      C2508   1.488       .  S
N1612      C1617   1.355       .  A
N1612      C1616   1.354       .  A
N1612      H1644   1.035       .  S
N1613      C1620   1.351       .  A
N1613      C1621   1.351       .  A
N1614      C1619   1.350       .  A
N1614      C1618   1.350       .  A
N1614      H1645   1.036       .  S
N1615      C1622   1.350       .  A
N1615      C1623   1.351       .  A
C1616      C1624   1.387       .  A
C1616      C1632   1.418       .  A
C1617      C1633   1.419       .  A
C1617      C1625   1.387       .  A
C1618      C1626   1.387       .  A
C1618      C1635   1.408       .  A
C1619      C1634   1.409       .  A
C1619      C1627   1.388       .  A
C1620      C1632   1.415       .  A
C1620      C1628   1.387       .  A
C1621      C1635   1.412       .  A
C1621      C1629   1.385       .  A
C1622      C1630   1.387       .  A
C1622      C1633   1.414       .  A
C1623      C1631   1.385       .  A
C1623      C1634   1.412       .  A
C1624      C1625   1.374       .  A
C1624      H1636   1.082       .  S
C1625      H1637   1.082       .  S
C1626      C1627   1.367       .  A
C1626      H1638   1.082       .  S
C1627      H1639   1.082       .  S
C1628      C1629   1.377       .  A
C1628      H1640   1.082       .  S
C1629      H1641   1.082       .  S
C1630      C1631   1.376       .  A
C1630      H1642   1.082       .  S
C1631      H1643   1.082       .  S
C1632      C2640   1.488       .  S
C1633      C2520   1.487       .  S
C1634      C2892   1.478       .  S
C1635      C3672   1.478       .  S
N1646      C1651   1.356       .  A
N1646      C1650   1.352       .  A
N1646      H1678   1.036       .  S
N1647      C1654   1.352       .  A
N1647      C1655   1.353       .  A
N1648      C1653   1.349       .  A
N1648      C1652   1.353       .  A
N1648      H1679   1.037       .  S
N1649      C1656   1.353       .  A
N1649      C1657   1.350       .  A
C1650      C1658   1.388       .  A
C1650      C1666   1.418       .  A
C1651      C1667   1.417       .  A
C1651      C1659   1.386       .  A
C1652      C1660   1.386       .  A
C1652      C1669   1.411       .  A
C1653      C1668   1.411       .  A
C1653      C1661   1.388       .  A
C1654      C1666   1.416       .  A
C1654      C1662   1.387       .  A
C1655      C1669   1.416       .  A
C1655      C1663   1.386       .  A
C1656      C1664   1.385       .  A
C1656      C1667   1.413       .  A
C1657      C1665   1.388       .  A
C1657      C1668   1.416       .  A
C1658      C1659   1.375       .  A
C1658      H1670   1.082       .  S
C1659      H1671   1.082       .  S
C1660      C1661   1.372       .  A
C1660      H1672   1.082       .  S
C1661      H1673   1.082       .  S
C1662      C1663   1.375       .  A
C1662      H1674   1.082       .  S
C1663      H1675   1.082       .  S
C1664      C1665   1.373       .  A
C1664      H1676   1.082       .  S
C1665      H1677   1.082       .  S
C1666      C2649   1.485       .  S
C1667      C2601   1.494       .  S
C1668      C3696   1.478       .  S
C1669      C2844   1.488       .  S
N1680      C1685   1.354       .  A
N1680      C1684   1.354       .  A
N1680      H1712   1.036       .  S
N1681      C1688   1.350       .  A
N1681      C1689   1.351       .  A
N1682      C1687   1.350       .  A
N1682      C1686   1.351       .  A
N1682      H1713   1.035       .  S
N1683      C1690   1.351       .  A
N1683      C1691   1.352       .  A
C1684      C1692   1.387       .  A
C1684      C1700   1.418       .  A
C1685      C1701   1.418       .  A
C1685      C1693   1.387       .  A
C1686      C1694   1.389       .  A
C1686      C1703   1.412       .  A
C1687      C1702   1.410       .  A
C1687      C1695   1.386       .  A
C1688      C1700   1.413       .  A
C1688      C1696   1.387       .  A
C1689      C1703   1.412       .  A
C1689      C1697   1.386       .  A
C1690      C1698   1.387       .  A
C1690      C1701   1.415       .  A
C1691      C1699   1.385       .  A
C1691      C1702   1.413       .  A
C1692      C1693   1.375       .  A
C1692      H1704   1.082       .  S
C1693      H1705   1.082       .  S
C1694      C1695   1.367       .  A
C1694      H1706   1.081       .  S
C1695      H1707   1.082       .  S
C1696      C1697   1.375       .  A
C1696      H1708   1.082       .  S
C1697      H1709   1.082       .  S
C1698      C1699   1.376       .  A
C1698      H1710   1.082       .  S
C1699      H1711   1.082       .  S
C1700      C2544   1.486       .  S
C1701      C2589   1.489       .  S
C1702      C3816   1.481       .  S
C1703      C3753   1.479       .  S
C1714      C2469   1.497       .  S
C1714      N1715   1.359       .  A
C1714      N1719   1.362       .  A
N1715      C1716   1.359       .  A
C1716      C2493   1.499       .  S
C1716      N1717   1.363       .  A
N1717      C1718   1.364       .  A
C1718      C2481   1.499       .  S
C1718      N1719   1.363       .  A
N1720      C1725   1.356       .  A
N1720      C1724   1.353       .  A
N1720      H1752   1.036       .  S
N1721      C1728   1.351       .  A
N1721      C1729   1.353       .  A
N1722      C1727   1.350       .  A
N1722      C1726   1.352       .  A
N1722      H1753   1.037       .  S
N1723      C1730   1.353       .  A
N1723      C1731   1.352       .  A
C1724      C1732   1.389       .  A
C1724      C1740   1.419       .  A
C1725      C1741   1.417       .  A
C1725      C1733   1.386       .  A
C1726      C1734   1.386       .  A
C1726      C1743   1.410       .  A
C1727      C1742   1.412       .  A
C1727      C1735   1.388       .  A
C1728      C1740   1.415       .  A
C1728      C1736   1.387       .  A
C1729      C1743   1.414       .  A
C1729      C1737   1.385       .  A
C1730      C1738   1.385       .  A
C1730      C1741   1.414       .  A
C1731      C1739   1.387       .  A
C1731      C1742   1.416       .  A
C1732      C1733   1.376       .  A
C1732      H1744   1.082       .  S
C1733      H1745   1.082       .  S
C1734      C1735   1.373       .  A
C1734      H1746   1.082       .  S
C1735      H1747   1.082       .  S
C1736      C1737   1.376       .  A
C1736      H1748   1.082       .  S
C1737      H1749   1.082       .  S
C1738      C1739   1.375       .  A
C1738      H1750   1.082       .  S
C1739      H1751   1.082       .  S
C1740      C2457   1.484       .  S
C1741      C2484   1.494       .  S
C1742      C4365   1.484       .  S
C1743      C4428   1.486       .  S
C1754      C2460   1.493       .  S
C1754      N1755   1.359       .  A
C1754      N1759   1.362       .  A
N1755      C1756   1.357       .  A
C1756      C2448   1.486       .  S
C1756      N1757   1.357       .  A
N1757      C1758   1.359       .  A
C1758      C2433   1.491       .  S
C1758      N1759   1.361       .  A
C1760      C2409   1.496       .  S
C1760      N1761   1.361       .  A
C1760      N1765   1.364       .  A
N1761      C1762   1.359       .  A
C1762      C2421   1.496   1_655  S
C1762      N1763   1.361       .  A
N1763      C1764   1.361       .  A
C1764      C2397   1.497       .  S
C1764      N1765   1.364       .  A
C1766      C2385   1.492   1_655  S
C1766      N1767   1.362       .  A
C1766      N1771   1.361       .  A
N1767      C1768   1.362       .  A
C1768      C2361   1.489       .  S
C1768      N1769   1.359       .  A
N1769      C1770   1.358       .  A
C1770      C2373   1.493       .  S
C1770      N1771   1.359       .  A
N1772      C1777   1.355       .  A
N1772      C1776   1.354       .  A
N1772      H1804   1.035       .  S
N1773      C1780   1.352       .  A
N1773      C1781   1.352       .  A
N1774      C1779   1.349       .  A
N1774      C1778   1.349       .  A
N1774      H1805   1.036       .  S
N1775      C1782   1.351       .  A
N1775      C1783   1.351       .  A
C1776      C1784   1.386       .  A
C1776      C1792   1.418       .  A
C1777      C1793   1.420       .  A
C1777      C1785   1.388       .  A
C1778      C1786   1.388       .  A
C1778      C1795   1.408       .  A
C1779      C1794   1.407       .  A
C1779      C1787   1.387       .  A
C1780      C1792   1.417       .  A
C1780      C1788   1.387       .  A
C1781      C1795   1.414       .  A
C1781      C1789   1.385       .  A
C1782      C1790   1.387       .  A
C1782      C1793   1.415       .  A
C1783      C1791   1.385       .  A
C1783      C1794   1.413       .  A
C1784      C1785   1.376       .  A
C1784      H1796   1.082       .  S
C1785      H1797   1.082       .  S
C1786      C1787   1.368       .  A
C1786      H1798   1.082       .  S
C1787      H1799   1.082       .  S
C1788      C1789   1.376       .  A
C1788      H1800   1.082       .  S
C1789      H1801   1.082       .  S
C1790      C1791   1.375       .  A
C1790      H1802   1.082       .  S
C1791      H1803   1.082       .  S
C1792      C2388   1.490       .  S
C1793      C2424   1.489       .  S
C1794      C4032   1.476       .  S
C1795      C3960   1.480       .  S
N1806      C1811   1.355       .  A
N1806      C1810   1.355       .  A
N1806      H1838   1.036       .  S
N1807      C1814   1.351       .  A
N1807      C1815   1.352       .  A
N1808      C1813   1.349       .  A
N1808      C1812   1.350       .  A
N1808      H1839   1.036       .  S
N1809      C1816   1.351       .  A
N1809      C1817   1.352       .  A
C1810      C1818   1.387       .  A
C1810      C1826   1.420       .  A
C1811      C1827   1.420       .  A
C1811      C1819   1.387       .  A
C1812      C1820   1.387       .  A
C1812      C1829   1.408       .  A
C1813      C1828   1.407       .  A
C1813      C1821   1.387       .  A
C1814      C1826   1.415       .  A
C1814      C1822   1.387       .  A
C1815      C1829   1.414       .  A
C1815      C1823   1.386       .  A
C1816      C1824   1.387       .  A
C1816      C1827   1.415       .  A
C1817      C1825   1.385       .  A
C1817      C1828   1.412       .  A
C1818      C1819   1.376       .  A
C1818      H1830   1.082       .  S
C1819      H1831   1.082       .  S
C1820      C1821   1.370       .  A
C1820      H1832   1.082       .  S
C1821      H1833   1.082       .  S
C1822      C1823   1.375       .  A
C1822      H1834   1.082       .  S
C1823      H1835   1.082       .  S
C1824      C1825   1.375       .  A
C1824      H1836   1.082       .  S
C1825      H1837   1.082       .  S
C1826      C2436   1.489       .  S
C1827      C2364   1.489       .  S
C1828      C2349   1.478       .  S
C1829      C2868   1.480       .  S
N1840      C1845   1.356       .  A
N1840      C1844   1.355       .  A
N1840      H1872   1.035       .  S
N1841      C1848   1.353       .  A
N1841      C1849   1.354       .  A
N1842      C1847   1.352       .  A
N1842      C1846   1.350       .  A
N1842      H1873   1.037       .  S
N1843      C1850   1.353       .  A
N1843      C1851   1.352       .  A
C1844      C1852   1.388       .  A
C1844      C1860   1.422       .  A
C1845      C1861   1.420       .  A
C1845      C1853   1.387       .  A
C1846      C1854   1.388       .  A
C1846      C1863   1.411       .  A
C1847      C1862   1.410       .  A
C1847      C1855   1.387       .  A
C1848      C1860   1.420       .  A
C1848      C1856   1.387       .  A
C1849      C1863   1.418       .  A
C1849      C1857   1.385       .  A
C1850      C1858   1.386       .  A
C1850      C1861   1.415       .  A
C1851      C1859   1.386       .  A
C1851      C1862   1.416       .  A
C1852      C1853   1.374       .  A
C1852      H1864   1.082       .  S
C1853      H1865   1.082       .  S
C1854      C1855   1.371       .  A
C1854      H1866   1.082       .  S
C1855      H1867   1.082       .  S
C1856      C1857   1.379       .  A
C1856      H1868   1.082       .  S
C1857      H1869   1.082       .  S
C1858      C1859   1.375       .  A
C1858      H1870   1.082       .  S
C1859      H1871   1.082       .  S
C1860      C2496   1.493       .  S
C1861      C2412   1.493       .  S
C1862      C3789   1.486       .  S
C1863      C3273   1.487       .  S
N1874      C1879   1.354       .  A
N1874      C1878   1.356       .  A
N1874      H1906   1.038       .  S
N1875      C1882   1.353       .  A
N1875      C1883   1.353       .  A
N1876      C1881   1.353       .  A
N1876      C1880   1.350       .  A
N1876      H1907   1.040       .  S
N1877      C1884   1.350       .  A
N1877      C1885   1.352       .  A
C1878      C1886   1.387       .  A
C1878      C1894   1.420       .  A
C1879      C1895   1.417       .  A
C1879      C1887   1.387       .  A
C1880      C1888   1.389       .  A
C1880      C1897   1.411       .  A
C1881      C1896   1.408       .  A
C1881      C1889   1.385       .  A
C1882      C1894   1.417       .  A
C1882      C1890   1.386       .  A
C1883      C1897   1.416       .  A
C1883      C1891   1.386       .  A
C1884      C1892   1.387       .  A
C1884      C1895   1.412       .  A
C1885      C1893   1.386       .  A
C1885      C1896   1.413       .  A
C1886      C1887   1.377       .  A
C1886      H1898   1.082       .  S
C1887      H1899   1.082       .  S
C1888      C1889   1.372       .  A
C1888      H1900   1.081       .  S
C1889      H1901   1.082       .  S
C1890      C1891   1.379       .  A
C1890      H1902   1.082       .  S
C1891      H1903   1.082       .  S
C1892      C1893   1.374       .  A
C1892      H1904   1.082       .  S
C1893      H1905   1.082       .  S
C1894      C2400   1.496       .  S
C1895      C2445   1.485       .  S
C1896      C3624   1.490       .  S
C1897      C3576   1.484       .  S
N1908      C1913   1.355       .  A
N1908      C1912   1.354       .  A
N1908      H1940   1.035       .  S
N1909      C1916   1.352       .  A
N1909      C1917   1.353       .  A
N1910      C1915   1.352       .  A
N1910      C1914   1.351       .  A
N1910      H1941   1.039       .  S
N1911      C1918   1.352       .  A
N1911      C1919   1.352       .  A
C1912      C1920   1.389       .  A
C1912      C1928   1.420       .  A
C1913      C1929   1.418       .  A
C1913      C1921   1.387       .  A
C1914      C1922   1.386       .  A
C1914      C1931   1.409       .  A
C1915      C1930   1.411       .  A
C1915      C1923   1.387       .  A
C1916      C1928   1.416       .  A
C1916      C1924   1.387       .  A
C1917      C1931   1.414       .  A
C1917      C1925   1.385       .  A
C1918      C1926   1.386       .  A
C1918      C1929   1.415       .  A
C1919      C1927   1.387       .  A
C1919      C1930   1.417       .  A
C1920      C1921   1.376       .  A
C1920      H1932   1.082       .  S
C1921      H1933   1.082       .  S
C1922      C1923   1.372       .  A
C1922      H1934   1.082       .  S
C1923      H1935   1.082       .  S
C1924      C1925   1.377       .  A
C1924      H1936   1.082       .  S
C1925      H1937   1.082       .  S
C1926      C1927   1.375       .  A
C1926      H1938   1.082       .  S
C1927      H1939   1.082       .  S
C1928      C2376   1.487       .  S
C1929      C2472   1.489       .  S
C1930      C3321   1.491       .  S
C1931      C2853   1.486       .  S
O1942      C1958   1.272       .  A
O1942     Zn1948   2.005       .  S
C1943      O1959   1.272       .  A
C1943      O1956   1.273       .  A
C1943      C4068   1.478       .  S
O1944      C1957   1.281       .  A
O1944     Cd1951   2.124       .  S
O1945      C1963   1.267       .  A
O1945     Cd1954   2.017       .  S
O1946      C1960   1.272       .  A
O1946     Cd1950   2.052   1_655  S
O1947      C1958   1.273       .  A
O1947     Cd1950   2.051       .  S
Zn1948     O1959   1.999   1_455  S
Zn1948     O1961   1.932       .  S
Zn1948     O1953   1.910       .  S
O1949      C1960   1.274       .  A
O1949     Cd1954   2.055       .  S
Cd1950     O1952   2.024       .  S
Cd1950     O1953   1.963       .  S
Cd1951     O1955   2.124       .  S
Cd1951     O1964   2.125   1_455  S
Cd1951     O1953   2.030       .  S
O1952      C1962   1.269       .  A
O1953     Cd1954   1.975   1_455  S
Cd1954     O1956   2.061       .  S
O1955      C1962   1.282       .  A
C1957      O1961   1.264       .  A
C1957      C2337   1.464       .  S
C1958      C3060   1.483       .  S
C1960      C2352   1.483       .  S
C1962      C2505   1.479       .  S
C1963      O1964   1.282       .  A
C1963      C2661   1.472       .  S
C1965      C2316   1.496       .  S
C1965      N1966   1.365   1_556  A
C1965      N1970   1.360   1_556  A
N1966      C1967   1.364       .  A
C1967      C2328   1.494   1_455  S
C1967      N1968   1.359       .  A
N1968      C1969   1.357       .  A
C1969      C2304   1.481       .  S
C1969      N1970   1.357       .  A
N1971      C1976   1.354       .  A
N1971      C1975   1.355       .  A
N1971      H2003   1.034       .  S
N1972      C1979   1.351       .  A
N1972      C1980   1.351       .  A
N1973      C1978   1.351       .  A
N1973      C1977   1.350       .  A
N1973      H2004   1.036       .  S
N1974      C1981   1.351       .  A
N1974      C1982   1.352       .  A
C1975      C1983   1.387       .  A
C1975      C1991   1.419       .  A
C1976      C1992   1.420       .  A
C1976      C1984   1.388       .  A
C1977      C1985   1.387       .  A
C1977      C1994   1.409       .  A
C1978      C1993   1.411       .  A
C1978      C1986   1.388       .  A
C1979      C1991   1.415       .  A
C1979      C1987   1.387       .  A
C1980      C1994   1.413       .  A
C1980      C1988   1.386       .  A
C1981      C1989   1.387       .  A
C1981      C1992   1.416       .  A
C1982      C1990   1.385       .  A
C1982      C1993   1.413       .  A
C1983      C1984   1.374       .  A
C1983      H1995   1.082       .  S
C1984      H1996   1.082       .  S
C1985      C1986   1.369       .  A
C1985      H1997   1.082       .  S
C1986      H1998   1.082       .  S
C1987      C1988   1.375       .  A
C1987      H1999   1.082       .  S
C1988      H2000   1.082       .  S
C1989      C1990   1.376       .  A
C1989      H2001   1.082       .  S
C1990      H2002   1.082       .  S
C1991      C2292   1.487       .  S
C1992      C2301   1.488       .  S
C1993      C3744   1.482       .  S
C1994      C3993   1.479       .  S
C2005      C2256   1.490       .  S
C2005      N2006   1.360       .  A
C2005      N2010   1.357       .  A
N2006      C2007   1.361       .  A
C2007      C2280   1.489       .  S
C2007      N2008   1.361       .  A
N2008      C2009   1.359   1_455  A
C2009      C2268   1.483       .  S
C2009      N2010   1.356   1_655  A
C2011      C2289   1.497       .  S
C2011      N2012   1.365       .  A
C2011      N2016   1.358       .  A
N2012      C2013   1.364       .  A
C2013      C2232   1.492       .  S
C2013      N2014   1.362       .  A
N2014      C2015   1.359       .  A
C2015      C2244   1.492       .  S
C2015      N2016   1.356       .  A
N2017      C2022   1.353       .  A
N2017      C2021   1.356       .  A
N2017      H2049   1.038       .  S
N2018      C2025   1.353       .  A
N2018      C2026   1.351       .  A
N2019      C2024   1.353       .  A
N2019      C2023   1.349       .  A
N2019      H2050   1.038       .  S
N2020      C2027   1.350       .  A
N2020      C2028   1.353       .  A
C2021      C2029   1.386       .  A
C2021      C2037   1.418       .  A
C2022      C2038   1.417       .  A
C2022      C2030   1.388       .  A
C2023      C2031   1.388       .  A
C2023      C2040   1.409       .  A
C2024      C2039   1.410       .  A
C2024      C2032   1.386       .  A
C2025      C2037   1.416       .  A
C2025      C2033   1.386       .  A
C2026      C2040   1.413       .  A
C2026      C2034   1.386       .  A
C2027      C2035   1.387       .  A
C2027      C2038   1.413       .  A
C2028      C2036   1.386       .  A
C2028      C2039   1.415       .  A
C2029      C2030   1.376       .  A
C2029      H2041   1.082       .  S
C2030      H2042   1.082       .  S
C2031      C2032   1.371       .  A
C2031      H2043   1.082       .  S
C2032      H2044   1.082       .  S
C2033      C2034   1.375       .  A
C2033      H2045   1.082       .  S
C2034      H2046   1.082       .  S
C2035      C2036   1.375       .  A
C2035      H2047   1.082       .  S
C2036      H2048   1.082       .  S
C2037      C2229   1.498       .  S
C2038      C2253   1.482       .  S
C2039      C2817   1.490       .  S
C2040      C3921   1.476       .  S
C2051      C2193   1.491       .  S
C2051      N2052   1.357       .  A
C2051      N2056   1.361       .  A
N2052      C2053   1.359       .  A
C2053      C2208   1.490       .  S
C2053      N2054   1.361       .  A
N2054      C2055   1.362       .  A
C2055      C2220   1.488   1_554  S
C2055      N2056   1.362       .  A
N2057      C2062   1.355       .  A
N2057      C2061   1.354       .  A
N2057      H2089   1.035       .  S
N2058      C2065   1.352       .  A
N2058      C2066   1.354       .  A
N2059      C2064   1.350       .  A
N2059      C2063   1.350       .  A
N2059      H2090   1.036       .  S
N2060      C2067   1.351       .  A
N2060      C2068   1.352       .  A
C2061      C2069   1.388       .  A
C2061      C2077   1.418       .  A
C2062      C2078   1.418       .  A
C2062      C2070   1.387       .  A
C2063      C2071   1.387       .  A
C2063      C2080   1.410       .  A
C2064      C2079   1.410       .  A
C2064      C2072   1.388       .  A
C2065      C2077   1.417       .  A
C2065      C2073   1.387       .  A
C2066      C2080   1.416       .  A
C2066      C2074   1.385       .  A
C2067      C2075   1.387       .  A
C2067      C2078   1.415       .  A
C2068      C2076   1.386       .  A
C2068      C2079   1.413       .  A
C2069      C2070   1.373       .  A
C2069      H2081   1.082       .  S
C2070      H2082   1.082       .  S
C2071      C2072   1.370       .  A
C2071      H2083   1.082       .  S
C2072      H2084   1.082       .  S
C2073      C2074   1.379       .  A
C2073      H2085   1.082       .  S
C2074      H2086   1.082       .  S
C2075      C2076   1.378       .  A
C2075      H2087   1.082       .  S
C2076      H2088   1.082       .  S
C2077      C2196   1.490       .  S
C2078      C2241   1.488       .  S
C2079      C4356   1.481       .  S
C2080      C3504   1.487       .  S
N2091      C2096   1.355       .  A
N2091      C2095   1.354       .  A
N2091      H2123   1.037       .  S
N2092      C2099   1.352       .  A
N2092      C2100   1.353       .  A
N2093      C2098   1.349       .  A
N2093      C2097   1.350       .  A
N2093      H2124   1.037       .  S
N2094      C2101   1.352       .  A
N2094      C2102   1.352       .  A
C2095      C2103   1.388       .  A
C2095      C2111   1.419       .  A
C2096      C2112   1.417       .  A
C2096      C2104   1.386       .  A
C2097      C2105   1.387       .  A
C2097      C2114   1.408       .  A
C2098      C2113   1.407       .  A
C2098      C2106   1.387       .  A
C2099      C2111   1.416       .  A
C2099      C2107   1.386       .  A
C2100      C2114   1.417       .  A
C2100      C2108   1.386       .  A
C2101      C2109   1.386       .  A
C2101      C2112   1.415       .  A
C2102      C2110   1.386       .  A
C2102      C2113   1.414       .  A
C2103      C2104   1.374       .  A
C2103      H2115   1.082       .  S
C2104      H2116   1.082       .  S
C2105      C2106   1.370       .  A
C2105      H2117   1.082       .  S
C2106      H2118   1.083       .  S
C2107      C2108   1.377       .  A
C2107      H2119   1.082       .  S
C2108      H2120   1.082       .  S
C2109      C2110   1.374       .  A
C2109      H2121   1.082       .  S
C2110      H2122   1.082       .  S
C2111      C2313   1.490       .  S
C2112      C2217   1.495       .  S
C2113      C3684   1.478       .  S
C2114      C2340   1.483       .  S
N2125      C2130   1.353       .  A
N2125      C2129   1.355       .  A
N2125      H2157   1.037       .  S
N2126      C2133   1.351       .  A
N2126      C2134   1.351       .  A
N2127      C2132   1.350       .  A
N2127      C2131   1.351       .  A
N2127      H2158   1.036       .  S
N2128      C2135   1.352       .  A
N2128      C2136   1.353       .  A
C2129      C2137   1.387       .  A
C2129      C2145   1.417       .  A
C2130      C2146   1.417       .  A
C2130      C2138   1.387       .  A
C2131      C2139   1.387       .  A
C2131      C2148   1.409       .  A
C2132      C2147   1.410       .  A
C2132      C2140   1.388       .  A
C2133      C2145   1.413       .  A
C2133      C2141   1.386       .  A
C2134      C2148   1.413       .  A
C2134      C2142   1.386       .  A
C2135      C2143   1.387       .  A
C2135      C2146   1.416       .  A
C2136      C2144   1.385       .  A
C2136      C2147   1.414       .  A
C2137      C2138   1.375       .  A
C2137      H2149   1.082       .  S
C2138      H2150   1.082       .  S
C2139      C2140   1.371       .  A
C2139      H2151   1.082       .  S
C2140      H2152   1.082       .  S
C2141      C2142   1.374       .  A
C2141      H2153   1.082       .  S
C2142      H2154   1.082       .  S
C2143      C2144   1.376       .  A
C2143      H2155   1.082       .  S
C2144      H2156   1.082       .  S
C2145      C2277   1.490       .  S
C2146      C2205   1.488       .  S
C2147      C3804   1.481       .  S
C2148      C3564   1.481       .  S
N2159      C2164   1.357       .  A
N2159      C2163   1.354       .  A
N2159      H2191   1.036       .  S
N2160      C2167   1.349       .  A
N2160      C2168   1.352       .  A
N2161      C2166   1.348       .  A
N2161      C2165   1.352       .  A
N2161      H2192   1.038       .  S
N2162      C2169   1.353       .  A
N2162      C2170   1.352       .  A
C2163      C2171   1.388       .  A
C2163      C2179   1.420       .  A
C2164      C2180   1.420       .  A
C2164      C2172   1.386       .  A
C2165      C2173   1.387       .  A
C2165      C2182   1.408       .  A
C2166      C2181   1.408       .  A
C2166      C2174   1.387       .  A
C2167      C2179   1.413       .  A
C2167      C2175   1.388       .  A
C2168      C2182   1.411       .  A
C2168      C2176   1.385       .  A
C2169      C2177   1.386       .  A
C2169      C2180   1.416       .  A
C2170      C2178   1.387       .  A
C2170      C2181   1.415       .  A
C2171      C2172   1.378       .  A
C2171      H2183   1.082       .  S
C2172      H2184   1.082       .  S
C2173      C2174   1.368       .  A
C2173      H2185   1.081       .  S
C2174      H2186   1.082       .  S
C2175      C2176   1.373       .  A
C2175      H2187   1.082       .  S
C2176      H2188   1.082       .  S
C2177      C2178   1.373       .  A
C2177      H2189   1.082       .  S
C2178      H2190   1.082       .  S
C2179      C2265   1.483       .  S
C2180      C2325   1.497       .  S
C2181      C3228   1.480       .  S
C2182      C3285   1.481       .  S
C2193      C2194   1.407       .  A
C2193      C2198   1.416       .  A
C2194      C2195   1.401       .  A
C2194      H2199   1.083       .  S
C2195      C2196   1.408       .  A
C2195      O2200   1.371       .  S
C2196      C2197   1.400       .  A
C2197      C2198   1.403       .  A
C2197      H2201   1.084       .  S
C2198      O2202   1.372       .  S
O2200      H2204   0.992       .  S
O2202      H2203   0.992       .  S
C2205      C2206   1.403       .  A
C2205      C2210   1.404       .  A
C2206      C2207   1.404   1_565  A
C2206      H2211   1.084       .  S
C2207      C2208   1.414       .  A
C2207      O2212   1.371       .  S
C2208      C2209   1.409   1_545  A
C2209      C2210   1.399       .  A
C2209      H2213   1.083       .  S
C2210      O2214   1.372       .  S
O2212      H2216   0.992       .  S
O2214      H2215   0.992       .  S
C2217      C2218   1.403       .  A
C2217      C2222   1.409       .  A
C2218      C2219   1.402       .  A
C2218      H2223   1.084       .  S
C2219      C2220   1.413       .  A
C2219      O2224   1.371       .  S
C2220      C2221   1.407       .  A
C2221      C2222   1.402       .  A
C2221      H2225   1.083       .  S
C2222      O2226   1.372       .  S
O2224      H2228   0.992       .  S
O2226      H2227   0.992       .  S
C2229      C2230   1.403       .  A
C2229      C2234   1.411       .  A
C2230      C2231   1.404       .  A
C2230      H2235   1.084       .  S
C2231      C2232   1.413       .  A
C2231      O2236   1.372       .  S
C2232      C2233   1.407       .  A
C2233      C2234   1.405       .  A
C2233      H2237   1.083       .  S
C2234      O2238   1.372       .  S
O2236      H2240   0.992       .  S
O2238      H2239   0.992       .  S
C2241      C2242   1.401       .  A
C2241      C2246   1.405       .  A
C2242      C2243   1.403       .  A
C2242      H2247   1.083       .  S
C2243      C2244   1.415       .  A
C2243      O2248   1.370       .  S
C2244      C2245   1.409       .  A
C2245      C2246   1.400       .  A
C2245      H2249   1.083       .  S
C2246      O2250   1.372       .  S
O2248      H2252   0.992       .  S
O2250      H2251   0.992       .  S
C2253      C2254   1.400       .  A
C2253      C2258   1.402       .  A
C2254      C2255   1.401       .  A
C2254      H2259   1.084       .  S
C2255      C2256   1.415       .  A
C2255      O2260   1.371       .  S
C2256      C2257   1.410       .  A
C2257      C2258   1.398       .  A
C2257      H2261   1.083       .  S
C2258      O2262   1.372       .  S
O2260      H2264   0.992       .  S
O2262      H2263   0.992       .  S
C2265      C2266   1.402       .  A
C2265      C2270   1.403       .  A
C2266      C2267   1.401       .  A
C2266      H2271   1.084       .  S
C2267      C2268   1.411       .  A
C2267      O2272   1.372       .  S
C2268      C2269   1.408       .  A
C2269      C2270   1.397       .  A
C2269      H2273   1.083       .  S
C2270      O2274   1.371       .  S
O2272      H2276   0.992       .  S
O2274      H2275   0.992       .  S
C2277      C2278   1.402       .  A
C2277      C2282   1.406       .  A
C2278      C2279   1.401       .  A
C2278      H2283   1.084       .  S
C2279      C2280   1.414   1_565  A
C2279      O2284   1.371       .  S
C2280      C2281   1.408   1_545  A
C2281      C2282   1.401       .  A
C2281      H2285   1.083   1_565  S
C2282      O2286   1.372       .  S
O2284      H2288   0.992       .  S
O2286      H2287   0.992       .  S
C2289      C2290   1.410       .  A
C2289      C2294   1.420       .  A
C2290      C2291   1.404       .  A
C2290      H2295   1.083       .  S
C2291      C2292   1.406       .  A
C2291      O2296   1.371       .  S
C2292      C2293   1.397       .  A
C2293      C2294   1.399       .  A
C2293      H2297   1.084       .  S
C2294      O2298   1.371       .  S
O2296      H2300   0.992       .  S
O2298      H2299   0.992       .  S
C2301      C2302   1.402       .  A
C2301      C2306   1.407       .  A
C2302      C2303   1.400       .  A
C2302      H2307   1.084       .  S
C2303      C2304   1.410       .  A
C2303      O2308   1.371       .  S
C2304      C2305   1.406       .  A
C2305      C2306   1.402       .  A
C2305      H2309   1.084       .  S
C2306      O2310   1.372       .  S
O2308      H2312   0.992       .  S
O2310      H2311   0.992       .  S
C2313      C2314   1.400       .  A
C2313      C2318   1.406       .  A
C2314      C2315   1.403       .  A
C2314      H2319   1.084       .  S
C2315      C2316   1.419       .  A
C2315      O2320   1.371       .  S
C2316      C2317   1.408       .  A
C2317      C2318   1.401       .  A
C2317      H2321   1.083       .  S
C2318      O2322   1.371       .  S
O2320      H2324   0.992       .  S
O2322      H2323   0.992       .  S
C2325      C2326   1.401       .  A
C2325      C2330   1.409       .  A
C2326      C2327   1.403       .  A
C2326      H2331   1.084       .  S
C2327      C2328   1.417       .  A
C2327      O2332   1.372   1_655  S
C2328      C2329   1.407       .  A
C2329      C2330   1.406       .  A
C2329      H2333   1.083       .  S
C2330      O2334   1.372       .  S
O2332      H2336   0.992       .  S
O2334      H2335   0.992       .  S
C2337      C2338   1.403       .  A
C2337      C2342   1.410       .  A
C2338      C2339   1.402       .  A
C2338      H2343   1.084       .  S
C2339      C2340   1.408       .  A
C2339      O2344   1.371       .  S
C2340      C2341   1.398       .  A
C2341      C2342   1.397       .  A
C2341      H2345   1.084       .  S
C2342      O2346   1.373       .  S
O2344      H2348   0.992       .  S
O2346      H2347   0.992       .  S
C2349      C2350   1.398       .  A
C2349      C2354   1.404       .  A
C2350      C2351   1.398       .  A
C2350      H2355   1.084       .  S
C2351      C2352   1.417       .  A
C2351      O2356   1.372       .  S
C2352      C2353   1.407       .  A
C2353      C2354   1.396       .  A
C2353      H2357   1.083       .  S
C2354      O2358   1.372       .  S
O2356      H2360   0.992       .  S
O2358      H2359   0.992       .  S
C2361      C2362   1.409       .  A
C2361      C2366   1.413       .  A
C2362      C2363   1.399       .  A
C2362      H2367   1.083       .  S
C2363      C2364   1.405       .  A
C2363      O2368   1.372       .  S
C2364      C2365   1.403       .  A
C2365      C2366   1.404       .  A
C2365      H2369   1.084       .  S
C2366      O2370   1.372       .  S
O2368      H2372   0.992       .  S
O2370      H2371   0.992       .  S
C2373      C2374   1.410       .  A
C2373      C2378   1.416       .  A
C2374      C2375   1.403       .  A
C2374      H2379   1.083       .  S
C2375      C2376   1.405       .  A
C2375      O2380   1.371       .  S
C2376      C2377   1.399       .  A
C2377      C2378   1.400       .  A
C2377      H2381   1.084       .  S
C2378      O2382   1.371       .  S
O2380      H2384   0.992       .  S
O2382      H2383   0.992       .  S
C2385      C2386   1.409       .  A
C2385      C2390   1.415       .  A
C2386      C2387   1.401       .  A
C2386      H2391   1.083       .  S
C2387      C2388   1.404       .  A
C2387      O2392   1.371       .  S
C2388      C2389   1.403       .  A
C2389      C2390   1.404       .  A
C2389      H2393   1.084       .  S
C2390      O2394   1.371   1_455  S
O2392      H2396   0.992       .  S
O2394      H2395   0.992       .  S
C2397      C2398   1.410       .  A
C2397      C2402   1.414       .  A
C2398      C2399   1.405       .  A
C2398      H2403   1.083       .  S
C2399      C2400   1.407       .  A
C2399      O2404   1.371       .  S
C2400      C2401   1.403       .  A
C2401      C2402   1.405       .  A
C2401      H2405   1.083       .  S
C2402      O2406   1.371       .  S
O2404      H2408   0.992       .  S
O2406      H2407   0.992       .  S
C2409      C2410   1.410       .  A
C2409      C2414   1.415       .  A
C2410      C2411   1.402       .  A
C2410      H2415   1.083       .  S
C2411      C2412   1.405       .  A
C2411      O2416   1.371       .  S
C2412      C2413   1.403       .  A
C2413      C2414   1.406       .  A
C2413      H2417   1.083       .  S
C2414      O2418   1.371       .  S
O2416      H2420   0.992       .  S
O2418      H2419   0.992       .  S
C2421      C2422   1.409       .  A
C2421      C2426   1.419       .  A
C2422      C2423   1.400       .  A
C2422      H2427   1.083       .  S
C2423      C2424   1.404       .  A
C2423      O2428   1.371       .  S
C2424      C2425   1.401       .  A
C2425      C2426   1.404       .  A
C2425      H2429   1.084       .  S
C2426      O2430   1.371       .  S
O2428      H2432   0.992       .  S
O2430      H2431   0.992       .  S
C2433      C2434   1.408       .  A
C2433      C2438   1.414       .  A
C2434      C2435   1.400       .  A
C2434      H2439   1.083       .  S
C2435      C2436   1.405       .  A
C2435      O2440   1.371       .  S
C2436      C2437   1.401       .  A
C2437      C2438   1.404       .  A
C2437      H2441   1.084       .  S
C2438      O2442   1.371       .  S
O2440      H2444   0.992       .  S
O2442      H2443   0.992       .  S
C2445      C2446   1.400       .  A
C2445      C2450   1.406       .  A
C2446      C2447   1.400       .  A
C2446      H2451   1.084       .  S
C2447      C2448   1.414       .  A
C2447      O2452   1.371       .  S
C2448      C2449   1.408       .  A
C2449      C2450   1.400       .  A
C2449      H2453   1.083       .  S
C2450      O2454   1.372       .  S
O2452      H2456   0.992       .  S
O2454      H2455   0.992       .  S
C2457      C2458   1.399       .  A
C2457      C2462   1.403       .  A
C2458      C2459   1.400       .  A
C2458      H2463   1.084       .  S
C2459      C2460   1.416       .  A
C2459      O2464   1.370       .  S
C2460      C2461   1.412       .  A
C2461      C2462   1.401       .  A
C2461      H2465   1.083       .  S
C2462      O2466   1.372       .  S
O2464      H2468   0.992       .  S
O2466      H2467   0.992       .  S
C2469      C2470   1.410       .  A
C2469      C2474   1.418       .  A
C2470      C2471   1.403       .  A
C2470      H2475   1.083       .  S
C2471      C2472   1.405       .  A
C2471      O2476   1.371       .  S
C2472      C2473   1.399       .  A
C2473      C2474   1.401       .  A
C2473      H2477   1.084       .  S
C2474      O2478   1.370       .  S
O2476      H2480   0.992       .  S
O2478      H2479   0.992       .  S
C2481      C2482   1.410       .  A
C2481      C2486   1.417       .  A
C2482      C2483   1.404       .  A
C2482      H2487   1.083       .  S
C2483      C2484   1.406       .  A
C2483      O2488   1.371       .  S
C2484      C2485   1.402       .  A
C2485      C2486   1.405       .  A
C2485      H2489   1.084       .  S
C2486      O2490   1.371       .  S
O2488      H2492   0.992       .  S
O2490      H2491   0.992       .  S
C2493      C2494   1.409       .  A
C2493      C2498   1.419       .  A
C2494      C2495   1.404       .  A
C2494      H2499   1.083       .  S
C2495      C2496   1.406       .  A
C2495      O2500   1.371       .  S
C2496      C2497   1.400       .  A
C2497      C2498   1.403       .  A
C2497      H2501   1.084       .  S
C2498      O2502   1.371       .  S
O2500      H2504   0.992       .  S
O2502      H2503   0.992       .  S
C2505      C2506   1.407       .  A
C2505      C2510   1.408       .  A
C2506      C2507   1.397       .  A
C2506      H2511   1.084       .  S
C2507      C2508   1.404       .  A
C2507      O2512   1.372       .  S
C2508      C2509   1.406       .  A
C2509      C2510   1.405       .  A
C2509      H2513   1.083       .  S
C2510      O2514   1.371       .  S
O2512      H2516   0.992       .  S
O2514      H2515   0.992       .  S
C2517      C2518   1.408       .  A
C2517      C2522   1.415       .  A
C2518      C2519   1.400       .  A
C2518      H2523   1.083   1_655  S
C2519      C2520   1.405       .  A
C2519      O2524   1.372       .  S
C2520      C2521   1.401       .  A
C2521      C2522   1.402       .  A
C2521      H2525   1.084       .  S
C2522      O2526   1.371       .  S
O2524      H2528   0.992       .  S
O2526      H2527   0.992       .  S
C2529      C2530   1.400       .  A
C2529      C2534   1.404       .  A
C2530      C2531   1.402       .  A
C2530      H2535   1.084       .  S
C2531      C2532   1.415       .  A
C2531      O2536   1.372       .  S
C2532      C2533   1.408       .  A
C2533      C2534   1.398       .  A
C2533      H2537   1.083       .  S
C2534      O2538   1.371       .  S
O2536      H2540   0.992       .  S
O2538      H2539   0.992       .  S
C2541      C2542   1.407       .  A
C2541      C2546   1.413       .  A
C2542      C2543   1.400       .  A
C2542      H2547   1.083       .  S
C2543      C2544   1.406       .  A
C2543      O2548   1.371       .  S
C2544      C2545   1.401       .  A
C2545      C2546   1.401       .  A
C2545      H2549   1.084       .  S
C2546      O2550   1.372       .  S
O2548      H2552   0.992       .  S
O2550      H2551   0.992       .  S
C2553      C2554   1.399       .  A
C2553      C2558   1.405       .  A
C2554      C2555   1.401       .  A
C2554      H2559   1.084       .  S
C2555      C2556   1.419       .  A
C2555      O2560   1.371       .  S
C2556      C2557   1.410       .  A
C2557      C2558   1.402       .  A
C2557      H2561   1.083       .  S
C2558      O2562   1.372       .  S
O2560      H2564   0.992       .  S
O2562      H2563   0.992       .  S
C2565      C2566   1.409       .  A
C2565      C2570   1.415       .  A
C2566      C2567   1.402       .  A
C2566      H2571   1.083       .  S
C2567      C2568   1.406       .  A
C2567      O2572   1.371       .  S
C2568      C2569   1.402       .  A
C2569      C2570   1.403       .  A
C2569      H2573   1.084       .  S
C2570      O2574   1.371       .  S
O2572      H2576   0.992       .  S
O2574      H2575   0.992       .  S
C2577      C2578   1.401       .  A
C2577      C2582   1.404       .  A
C2578      C2579   1.403       .  A
C2578      H2583   1.084       .  S
C2579      C2580   1.416       .  A
C2579      O2584   1.370       .  S
C2580      C2581   1.411       .  A
C2581      C2582   1.402       .  A
C2581      H2585   1.083       .  S
C2582      O2586   1.372       .  S
O2584      H2588   0.992       .  S
O2586      H2587   0.992       .  S
C2589      C2590   1.401       .  A
C2589      C2594   1.406       .  A
C2590      C2591   1.401       .  A
C2590      H2595   1.084       .  S
C2591      C2592   1.415       .  A
C2591      O2596   1.372       .  S
C2592      C2593   1.408       .  A
C2593      C2594   1.403       .  A
C2593      H2597   1.083       .  S
C2594      O2598   1.371       .  S
O2596      H2600   0.992       .  S
O2598      H2599   0.992       .  S
C2601      C2602   1.401       .  A
C2601      C2606   1.407       .  A
C2602      C2603   1.403       .  A
C2602      H2607   1.084       .  S
C2603      C2604   1.415       .  A
C2603      O2608   1.370       .  S
C2604      C2605   1.410       .  A
C2605      C2606   1.405       .  A
C2605      H2609   1.083       .  S
C2606      O2610   1.371       .  S
O2608      H2612   0.992       .  S
O2610      H2611   0.992       .  S
C2613      C2614   1.403       .  A
C2613      C2618   1.405       .  A
C2614      C2615   1.405       .  A
C2614      H2619   1.084       .  S
C2615      C2616   1.417       .  A
C2615      O2620   1.371       .  S
C2616      C2617   1.411       .  A
C2617      C2618   1.403       .  A
C2617      H2621   1.083       .  S
C2618      O2622   1.372       .  S
O2620      H2624   0.992       .  S
O2622      H2623   0.992       .  S
C2625      C2626   1.405       .  A
C2625      C2630   1.411       .  A
C2626      C2627   1.398       .  A
C2626      H2631   1.083       .  S
C2627      C2628   1.411       .  A
C2627      O2632   1.372       .  S
C2628      C2629   1.409       .  A
C2629      C2630   1.406       .  A
C2629      H2633   1.083       .  S
C2630      O2634   1.371       .  S
O2632      H2636   0.992       .  S
O2634      H2635   0.992       .  S
C2637      C2638   1.409       .  A
C2637      C2642   1.413       .  A
C2638      C2639   1.399       .  A
C2638      H2643   1.083       .  S
C2639      C2640   1.405       .  A
C2639      O2644   1.372       .  S
C2640      C2641   1.402       .  A
C2641      C2642   1.404       .  A
C2641      H2645   1.083       .  S
C2642      O2646   1.371       .  S
O2644      H2648   0.992       .  S
O2646      H2647   0.992       .  S
C2649      C2650   1.399       .  A
C2649      C2654   1.404       .  A
C2650      C2651   1.399       .  A
C2650      H2655   1.084       .  S
C2651      C2652   1.417       .  A
C2651      O2656   1.371       .  S
C2652      C2653   1.409       .  A
C2653      C2654   1.402       .  A
C2653      H2657   1.083       .  S
C2654      O2658   1.371       .  S
O2656      H2660   0.992       .  S
O2658      H2659   0.992       .  S
C2661      C2662   1.406       .  A
C2661      C2666   1.405       .  A
C2662      C2663   1.400       .  A
C2662      H2667   1.084       .  S
C2663      C2664   1.406       .  A
C2663      O2668   1.372       .  S
C2664      C2665   1.406       .  A
C2665      C2666   1.403       .  A
C2665      H2669   1.084       .  S
C2666      O2670   1.371       .  S
O2668      H2672   0.992       .  S
O2670      H2671   0.992       .  S
C2673      C2674   1.410       .  A
C2673      C2678   1.417       .  A
C2674      C2675   1.402       .  A
C2674      H2679   1.083       .  S
C2675      C2676   1.405       .  A
C2675      O2680   1.372       .  S
C2676      C2677   1.401       .  A
C2677      C2678   1.403       .  A
C2677      H2681   1.084       .  S
C2678      O2682   1.371       .  S
O2680      H2684   0.992       .  S
O2682      H2683   0.992       .  S
C2685      C2686   1.411       .  A
C2685      C2690   1.417       .  A
C2686      C2687   1.400       .  A
C2686      H2691   1.082       .  S
C2687      C2688   1.403       .  A
C2687      O2692   1.371       .  S
C2688      C2689   1.403       .  A
C2689      C2690   1.407       .  A
C2689      H2693   1.083       .  S
C2690      O2694   1.371       .  S
O2692      H2696   0.992       .  S
O2694      H2695   0.992       .  S
C2697      C2698   1.412       .  A
C2697      C2702   1.414       .  A
C2698      C2699   1.401       .  A
C2698      H2703   1.083       .  S
C2699      C2700   1.403       .  A
C2699      O2704   1.372       .  S
C2700      C2701   1.401       .  A
C2701      C2702   1.402       .  A
C2701      H2705   1.084       .  S
C2702      O2706   1.370       .  S
O2704      H2708   0.992       .  S
O2706      H2707   0.992       .  S
C2709      C2710   1.410       .  A
C2709      C2714   1.417       .  A
C2710      C2711   1.401       .  A
C2710      H2715   1.083       .  S
C2711      C2712   1.404       .  A
C2711      O2716   1.371       .  S
C2712      C2713   1.400       .  A
C2713      C2714   1.401       .  A
C2713      H2717   1.084       .  S
C2714      O2718   1.371       .  S
O2716      H2720   0.992       .  S
O2718      H2719   0.992       .  S
C2721      C2722   1.400       .  A
C2721      C2726   1.405       .  A
C2722      C2723   1.400       .  A
C2722      H2727   1.084       .  S
C2723      C2724   1.416       .  A
C2723      O2728   1.371       .  S
C2724      C2725   1.410       .  A
C2725      C2726   1.403       .  A
C2725      H2729   1.083       .  S
C2726      O2730   1.371       .  S
O2728      H2732   0.992       .  S
O2730      H2731   0.992       .  S
C2733      C2734   1.403       .  A
C2733      C2738   1.407       .  A
C2734      C2735   1.403       .  A
C2734      H2739   1.084       .  S
C2735      C2736   1.414       .  A
C2735      O2740   1.372       .  S
C2736      C2737   1.408       .  A
C2737      C2738   1.402       .  A
C2737      H2741   1.083       .  S
C2738      O2742   1.371       .  S
O2740      H2744   0.992       .  S
O2742      H2743   0.992       .  S
C2745      C2746   1.409       .  A
C2745      C2750   1.415       .  A
C2746      C2747   1.402       .  A
C2746      H2751   1.083       .  S
C2747      C2748   1.405       .  A
C2747      O2752   1.371       .  S
C2748      C2749   1.400       .  A
C2749      C2750   1.400       .  A
C2749      H2753   1.084       .  S
C2750      O2754   1.371       .  S
O2752      H2756   0.992       .  S
O2754      H2755   0.992       .  S
C2757      C2758   1.410   1_545  A
C2757      C2762   1.416   1_545  A
C2758      C2759   1.399       .  A
C2758      H2763   1.083   1_565  S
C2759      C2760   1.404       .  A
C2759      O2764   1.372       .  S
C2760      C2761   1.402       .  A
C2761      C2762   1.405       .  A
C2761      H2765   1.083       .  S
C2762      O2766   1.371       .  S
O2764      H2768   0.992       .  S
O2766      H2767   0.992   1_565  S
C2769      C2770   1.407       .  A
C2769      C2774   1.416       .  A
C2770      C2771   1.404       .  A
C2770      H2775   1.083       .  S
C2771      C2772   1.408       .  A
C2771      O2776   1.372       .  S
C2772      C2773   1.401       .  A
C2773      C2774   1.402       .  A
C2773      H2777   1.084       .  S
C2774      O2778   1.371       .  S
O2776      H2780   0.992       .  S
O2778      H2779   0.992       .  S
C2781      C2782   1.409       .  A
C2781      C2786   1.417       .  A
C2782      C2783   1.401       .  A
C2782      H2787   1.083       .  S
C2783      C2784   1.405       .  A
C2783      O2788   1.371       .  S
C2784      C2785   1.401       .  A
C2785      C2786   1.404       .  A
C2785      H2789   1.084       .  S
C2786      O2790   1.371       .  S
O2788      H2792   0.992       .  S
O2790      H2791   0.992       .  S
C2793      C2794   1.409       .  A
C2793      C2798   1.414       .  A
C2794      C2795   1.403       .  A
C2794      H2799   1.083       .  S
C2795      C2796   1.406       .  A
C2795      O2800   1.371       .  S
C2796      C2797   1.400       .  A
C2797      C2798   1.400       .  A
C2797      H2801   1.084       .  S
C2798      O2802   1.371       .  S
O2800      H2804   0.992       .  S
O2802      H2803   0.992       .  S
C2805      C2806   1.408   1_545  A
C2805      C2810   1.416   1_545  A
C2806      C2807   1.401       .  A
C2806      H2811   1.083   1_565  S
C2807      C2808   1.406       .  A
C2807      O2812   1.372       .  S
C2808      C2809   1.402       .  A
C2809      C2810   1.404       .  A
C2809      H2813   1.084       .  S
C2810      O2814   1.371       .  S
O2812      H2816   0.992       .  S
O2814      H2815   0.992       .  S
C2817      C2818   1.399       .  A
C2817      C2822   1.412       .  A
C2818      C2819   1.396       .  A
C2818      H2823   1.084       .  S
C2819      C2820   1.413       .  A
C2819      O2824   1.373       .  S
C2820      C2821   1.402       .  A
C2821      C2822   1.405       .  A
C2821      H2825   1.083       .  S
C2822      O2826   1.371       .  S
O2824      H2828   0.992       .  S
O2826      H2827   0.992       .  S
C2829      C2830   1.401       .  A
C2829      C2834   1.411       .  A
C2830      C2831   1.405       .  A
C2830      H2835   1.083       .  S
C2831      C2832   1.411       .  A
C2831      O2836   1.371       .  S
C2832      C2833   1.399       .  A
C2833      C2834   1.395       .  A
C2833      H2837   1.084       .  S
C2834      O2838   1.373       .  S
O2836      H2840   0.992       .  S
O2838      H2839   0.992       .  S
C2841      C2842   1.403       .  A
C2841      C2846   1.412       .  A
C2842      C2843   1.404       .  A
C2842      H2847   1.084       .  S
C2843      C2844   1.409       .  A
C2843      O2848   1.371       .  S
C2844      C2845   1.400       .  A
C2845      C2846   1.398       .  A
C2845      H2849   1.084       .  S
C2846      O2850   1.372       .  S
O2848      H2852   0.992       .  S
O2850      H2851   0.992       .  S
C2853      C2854   1.404       .  A
C2853      C2858   1.402       .  A
C2854      C2855   1.406       .  A
C2854      H2859   1.084       .  S
C2855      C2856   1.413       .  A
C2855      O2860   1.372       .  S
C2856      C2857   1.411       .  A
C2857      C2858   1.399       .  A
C2857      H2861   1.083       .  S
C2858      O2862   1.372       .  S
O2860      H2864   0.992       .  S
O2862      H2863   0.992       .  S
C2865      C2866   1.406       .  A
C2865      C2870   1.406       .  A
C2866      C2867   1.395       .  A
C2866      H2871   1.084       .  S
C2867      C2868   1.403       .  A
C2867      O2872   1.372       .  S
C2868      C2869   1.404       .  A
C2869      C2870   1.402       .  A
C2869      H2873   1.083       .  S
C2870      O2874   1.371       .  S
O2872      H2876   0.992       .  S
O2874      H2875   0.992       .  S
C2877      C2878   1.411       .  A
C2877      C2882   1.409       .  A
C2878      C2879   1.401       .  A
C2878      H2883   1.083       .  S
C2879      C2880   1.403       .  A
C2879      O2884   1.372       .  S
C2880      C2881   1.405       .  A
C2881      C2882   1.399       .  A
C2881      H2885   1.084       .  S
C2882      O2886   1.371       .  S
O2884      H2888   0.992       .  S
O2886      H2887   0.992       .  S
C2889      C2890   1.409       .  A
C2889      C2894   1.414       .  A
C2890      C2891   1.394       .  A
C2890      H2895   1.083       .  S
C2891      C2892   1.401       .  A
C2891      O2896   1.372       .  S
C2892      C2893   1.402       .  A
C2893      C2894   1.402       .  A
C2893      H2897   1.084       .  S
C2894      O2898   1.372       .  S
O2896      H2900   0.992       .  S
O2898      H2899   0.992       .  S
C2901      C2902   1.400       .  A
C2901      C2906   1.406       .  A
C2902      C2903   1.401       .  A
C2902      H2907   1.084       .  S
C2903      C2904   1.415       .  A
C2903      O2908   1.372       .  S
C2904      C2905   1.405       .  A
C2905      C2906   1.398       .  A
C2905      H2909   1.084       .  S
C2906      O2910   1.372       .  S
O2908      H2912   0.992       .  S
O2910      H2911   0.992       .  S
C2913      C2914   1.408       .  A
C2913      C2918   1.416       .  A
C2914      C2915   1.399       .  A
C2914      H2919   1.083       .  S
C2915      C2916   1.404       .  A
C2915      O2920   1.371       .  S
C2916      C2917   1.401       .  A
C2917      C2918   1.402       .  A
C2917      H2921   1.084       .  S
C2918      O2922   1.372       .  S
O2920      H2924   0.992       .  S
O2922      H2923   0.992       .  S
C2925      C2926   1.409       .  A
C2925      C2930   1.416       .  A
C2926      C2927   1.400       .  A
C2926      H2931   1.083       .  S
C2927      C2928   1.404       .  A
C2927      O2932   1.372       .  S
C2928      C2929   1.397       .  A
C2929      C2930   1.397       .  A
C2929      H2933   1.084       .  S
C2930      O2934   1.369       .  S
O2932      H2936   0.992       .  S
O2934      H2935   0.992       .  S
C2937      C2938   1.402       .  A
C2937      C2942   1.409       .  A
C2938      C2939   1.400       .  A
C2938      H2943   1.084       .  S
C2939      C2940   1.412       .  A
C2939      O2944   1.371       .  S
C2940      C2941   1.405       .  A
C2941      C2942   1.400       .  A
C2941      H2945   1.083       .  S
C2942      O2946   1.372       .  S
O2944      H2948   0.992       .  S
O2946      H2947   0.992       .  S
C2949      C2950   1.406       .  A
C2949      C2954   1.412       .  A
C2950      C2951   1.400       .  A
C2950      H2955   1.083       .  S
C2951      C2952   1.408       .  A
C2951      O2956   1.372       .  S
C2952      C2953   1.403       .  A
C2953      C2954   1.403       .  A
C2953      H2957   1.083       .  S
C2954      O2958   1.372       .  S
O2956      H2960   0.992       .  S
O2958      H2959   0.992       .  S
C2961      C2962   1.409       .  A
C2961      C2966   1.416       .  A
C2962      C2963   1.401       .  A
C2962      H2967   1.083       .  S
C2963      C2964   1.404       .  A
C2963      O2968   1.371       .  S
C2964      C2965   1.400       .  A
C2965      C2966   1.401       .  A
C2965      H2969   1.084       .  S
C2966      O2970   1.371       .  S
O2968      H2972   0.992       .  S
O2970      H2971   0.992   1_556  S
C2973      C2974   1.408       .  A
C2973      C2978   1.415       .  A
C2974      C2975   1.403       .  A
C2974      H2979   1.083       .  S
C2975      C2976   1.406       .  A
C2975      O2980   1.371       .  S
C2976      C2977   1.401       .  A
C2977      C2978   1.401       .  A
C2977      H2981   1.084       .  S
C2978      O2982   1.371       .  S
O2980      H2984   0.992       .  S
O2982      H2983   0.992       .  S
C2985      C2986   1.403       .  A
C2985      C2990   1.407       .  A
C2986      C2987   1.406       .  A
C2986      H2991   1.083       .  S
C2987      C2988   1.418       .  A
C2987      O2992   1.371       .  S
C2988      C2989   1.409       .  A
C2989      C2990   1.404       .  A
C2989      H2993   1.083       .  S
C2990      O2994   1.371       .  S
O2992      H2996   0.992       .  S
O2994      H2995   0.992       .  S
C2997      C2998   1.410       .  A
C2997      C3002   1.420       .  A
C2998      C2999   1.405       .  A
C2998      H3003   1.083       .  S
C2999      C3000   1.406       .  A
C2999      O3004   1.371       .  S
C3000      C3001   1.399       .  A
C3001      C3002   1.403       .  A
C3001      H3005   1.084       .  S
C3002      O3006   1.371       .  S
O3004      H3008   0.992       .  S
O3006      H3007   0.992   1_556  S
C3009      C3010   1.398       .  A
C3009      C3014   1.404       .  A
C3010      C3011   1.399       .  A
C3010      H3015   1.084       .  S
C3011      C3012   1.415       .  A
C3011      O3016   1.369       .  S
C3012      C3013   1.409       .  A
C3013      C3014   1.400       .  A
C3013      H3017   1.083       .  S
C3014      O3018   1.371       .  S
O3016      H3020   0.992       .  S
O3018      H3019   0.992       .  S
C3021      C3022   1.407       .  A
C3021      C3026   1.413       .  A
C3022      C3023   1.401       .  A
C3022      H3027   1.083       .  S
C3023      C3024   1.406       .  A
C3023      O3028   1.371       .  S
C3024      C3025   1.400       .  A
C3025      C3026   1.399       .  A
C3025      H3029   1.084       .  S
C3026      O3030   1.371       .  S
O3028      H3032   0.992       .  S
O3030      H3031   0.992       .  S
C3033      C3034   1.409       .  A
C3033      C3038   1.418       .  A
C3034      C3035   1.400       .  A
C3034      H3039   1.083       .  S
C3035      C3036   1.404       .  A
C3035      O3040   1.371       .  S
C3036      C3037   1.399       .  A
C3037      C3038   1.401       .  A
C3037      H3041   1.084       .  S
C3038      O3042   1.371       .  S
O3040      H3044   0.992       .  S
O3042      H3043   0.992       .  S
C3045      C3046   1.402       .  A
C3045      C3050   1.406       .  A
C3046      C3047   1.402       .  A
C3046      H3051   1.084       .  S
C3047      C3048   1.414       .  A
C3047      O3052   1.372       .  S
C3048      C3049   1.408       .  A
C3049      C3050   1.401       .  A
C3049      H3053   1.083       .  S
C3050      O3054   1.371       .  S
O3052      H3056   0.992       .  S
O3054      H3055   0.992       .  S
C3057      C3058   1.400       .  A
C3057      C3062   1.402       .  A
C3058      C3059   1.401       .  A
C3058      H3063   1.084       .  S
C3059      C3060   1.417       .  A
C3059      O3064   1.372       .  S
C3060      C3061   1.407       .  A
C3061      C3062   1.394       .  A
C3061      H3065   1.083       .  S
C3062      O3066   1.372       .  S
O3064      H3068   0.992       .  S
O3066      H3067   0.992       .  S
C3069      C3070   1.407       .  A
C3069      C3074   1.406       .  A
C3070      C3071   1.402       .  A
C3070      H3075   1.083       .  S
C3071      C3072   1.406       .  A
C3071      O3076   1.371       .  S
C3072      C3073   1.409       .  A
C3073      C3074   1.399       .  A
C3073      H3077   1.084       .  S
C3074      O3078   1.372       .  S
O3076      H3080   0.992       .  S
O3078      H3079   0.992       .  S
C3081      C3082   1.411       .  A
C3081      C3086   1.415       .  A
C3082      C3083   1.400       .  A
C3082      H3087   1.083       .  S
C3083      C3084   1.403       .  A
C3083      O3088   1.371       .  S
C3084      C3085   1.401       .  A
C3085      C3086   1.403       .  A
C3085      H3089   1.084       .  S
C3086      O3090   1.371       .  S
O3088      H3092   0.992       .  S
O3090      H3091   0.992       .  S
C3093      C3094   1.403       .  A
C3093      C3098   1.404       .  A
C3094      C3095   1.404       .  A
C3094      H3099   1.084       .  S
C3095      C3096   1.414       .  A
C3095      O3100   1.371       .  S
C3096      C3097   1.409       .  A
C3097      C3098   1.397       .  A
C3097      H3101   1.083       .  S
C3098      O3102   1.372       .  S
O3100      H3104   0.992       .  S
O3102      H3103   0.992       .  S
C3105      C3106   1.411       .  A
C3105      C3110   1.417       .  A
C3106      C3107   1.400       .  A
C3106      H3111   1.083       .  S
C3107      C3108   1.403       .  A
C3107      O3112   1.371       .  S
C3108      C3109   1.401       .  A
C3109      C3110   1.404       .  A
C3109      H3113   1.084       .  S
C3110      O3114   1.371       .  S
O3112      H3116   0.992       .  S
O3114      H3115   0.992       .  S
C3117      C3118   1.409       .  A
C3117      C3122   1.417       .  A
C3118      C3119   1.404       .  A
C3118      H3123   1.083       .  S
C3119      C3120   1.406       .  A
C3119      O3124   1.371       .  S
C3120      C3121   1.402       .  A
C3121      C3122   1.404       .  A
C3121      H3125   1.084       .  S
C3122      O3126   1.371       .  S
O3124      H3128   0.992       .  S
O3126      H3127   0.992       .  S
C3129      C3130   1.399       .  A
C3129      C3134   1.406       .  A
C3130      C3131   1.402       .  A
C3130      H3135   1.084       .  S
C3131      C3132   1.419       .  A
C3131      O3136   1.370       .  S
C3132      C3133   1.410       .  A
C3133      C3134   1.403       .  A
C3133      H3137   1.083       .  S
C3134      O3138   1.371       .  S
O3136      H3140   0.992       .  S
O3138      H3139   0.992       .  S
C3141      C3142   1.409       .  A
C3141      C3146   1.418       .  A
C3142      C3143   1.400       .  A
C3142      H3147   1.083       .  S
C3143      C3144   1.404       .  A
C3143      O3148   1.371       .  S
C3144      C3145   1.400       .  A
C3145      C3146   1.403       .  A
C3145      H3149   1.084       .  S
C3146      O3150   1.370       .  S
O3148      H3152   0.992       .  S
O3150      H3151   0.992       .  S
C3153      C3154   1.411       .  A
C3153      C3158   1.415       .  A
C3154      C3155   1.403       .  A
C3154      H3159   1.083       .  S
C3155      C3156   1.405       .  A
C3155      O3160   1.371       .  S
C3156      C3157   1.402       .  A
C3157      C3158   1.403       .  A
C3157      H3161   1.084       .  S
C3158      O3162   1.370       .  S
O3160      H3164   0.992       .  S
O3162      H3163   0.992       .  S
C3165      C3166   1.411       .  A
C3165      C3170   1.416       .  A
C3166      C3167   1.402       .  A
C3166      H3171   1.083       .  S
C3167      C3168   1.405       .  A
C3167      O3172   1.371       .  S
C3168      C3169   1.402       .  A
C3169      C3170   1.405       .  A
C3169      H3173   1.084       .  S
C3170      O3174   1.370   1_554  S
O3172      H3176   0.992       .  S
O3174      H3175   0.992   1_556  S
C3177      C3178   1.400       .  A
C3177      C3182   1.403       .  A
C3178      C3179   1.402       .  A
C3178      H3183   1.084       .  S
C3179      C3180   1.417       .  A
C3179      O3184   1.371       .  S
C3180      C3181   1.410       .  A
C3181      C3182   1.400       .  A
C3181      H3185   1.083       .  S
C3182      O3186   1.372       .  S
O3184      H3188   0.992       .  S
O3186      H3187   0.992       .  S
C3189      C3190   1.408       .  A
C3189      C3194   1.418       .  A
C3190      C3191   1.405       .  A
C3190      H3195   1.083       .  S
C3191      C3192   1.407       .  A
C3191      O3196   1.371       .  S
C3192      C3193   1.401       .  A
C3193      C3194   1.405       .  A
C3193      H3197   1.084       .  S
C3194      O3198   1.371       .  S
O3196      H3200   0.992       .  S
O3198      H3199   0.992       .  S
C3201      C3202   1.411       .  A
C3201      C3206   1.419       .  A
C3202      C3203   1.407       .  A
C3202      H3207   1.083       .  S
C3203      C3204   1.406       .  A
C3203      O3208   1.371       .  S
C3204      C3205   1.399       .  A
C3205      C3206   1.403       .  A
C3205      H3209   1.084       .  S
C3206      O3210   1.370       .  S
O3208      H3212   0.992       .  S
O3210      H3211   0.992       .  S
C3213      C3214   1.410       .  A
C3213      C3218   1.416       .  A
C3214      C3215   1.403       .  A
C3214      H3219   1.083       .  S
C3215      C3216   1.406       .  A
C3215      O3220   1.371       .  S
C3216      C3217   1.400       .  A
C3217      C3218   1.404       .  A
C3217      H3221   1.084       .  S
C3218      O3222   1.370       .  S
O3220      H3224   0.992       .  S
O3222      H3223   0.992       .  S
C3225      C3226   1.401       .  A
C3225      C3230   1.409       .  A
C3226      C3227   1.400       .  A
C3226      H3231   1.084       .  S
C3227      C3228   1.412       .  A
C3227      O3232   1.372       .  S
C3228      C3229   1.398       .  A
C3229      C3230   1.390       .  A
C3229      H3233   1.084       .  S
C3230      O3234   1.372       .  S
O3232      H3236   0.992       .  S
O3234      H3235   0.992       .  S
C3237      C3238   1.401       .  A
C3237      C3242   1.404       .  A
C3238      C3239   1.396       .  A
C3238      H3243   1.084       .  S
C3239      C3240   1.404       .  A
C3239      O3244   1.371       .  S
C3240      C3241   1.403       .  A
C3241      C3242   1.396       .  A
C3241      H3245   1.084       .  S
C3242      O3246   1.372       .  S
O3244      H3248   0.992       .  S
O3246      H3247   0.992       .  S
C3249      C3250   1.400       .  A
C3249      C3254   1.409       .  A
C3250      C3251   1.398       .  A
C3250      H3255   1.084       .  S
C3251      C3252   1.408       .  A
C3251      O3256   1.372       .  S
C3252      C3253   1.397       .  A
C3253      C3254   1.390       .  A
C3253      H3257   1.084       .  S
C3254      O3258   1.373       .  S
O3256      H3260   0.992       .  S
O3258      H3259   0.992       .  S
C3261      C3262   1.399       .  A
C3261      C3266   1.405       .  A
C3262      C3263   1.400       .  A
C3262      H3267   1.084       .  S
C3263      C3264   1.418       .  A
C3263      O3268   1.372       .  S
C3264      C3265   1.409       .  A
C3265      C3266   1.400       .  A
C3265      H3269   1.083       .  S
C3266      O3270   1.372       .  S
O3268      H3272   0.992       .  S
O3270      H3271   0.992       .  S
C3273      C3274   1.404       .  A
C3273      C3278   1.404       .  A
C3274      C3275   1.403       .  A
C3274      H3279   1.084       .  S
C3275      C3276   1.411       .  A
C3275      O3280   1.371       .  S
C3276      C3277   1.410       .  A
C3277      C3278   1.400       .  A
C3277      H3281   1.083       .  S
C3278      O3282   1.371       .  S
O3280      H3284   0.992       .  S
O3282      H3283   0.992       .  S
C3285      C3286   1.400       .  A
C3285      C3290   1.403       .  A
C3286      C3287   1.398       .  A
C3286      H3291   1.084       .  S
C3287      C3288   1.416       .  A
C3287      O3292   1.372       .  S
C3288      C3289   1.410       .  A
C3289      C3290   1.398       .  A
C3289      H3293   1.083       .  S
C3290      O3294   1.371       .  S
O3292      H3296   0.992       .  S
O3294      H3295   0.992       .  S
C3297      C3298   1.408       .  A
C3297      C3302   1.416       .  A
C3298      C3299   1.399       .  A
C3298      H3303   1.083       .  S
C3299      C3300   1.405       .  A
C3299      O3304   1.372       .  S
C3300      C3301   1.398       .  A
C3301      C3302   1.398       .  A
C3301      H3305   1.084       .  S
C3302      O3306   1.372       .  S
O3304      H3308   0.992       .  S
O3306      H3307   0.992       .  S
C3309      C3310   1.398       .  A
C3309      C3314   1.405       .  A
C3310      C3311   1.398       .  A
C3310      H3315   1.084       .  S
C3311      C3312   1.417       .  A
C3311      O3316   1.372       .  S
C3312      C3313   1.407       .  A
C3313      C3314   1.399       .  A
C3313      H3317   1.083       .  S
C3314      O3318   1.372       .  S
O3316      H3320   0.992       .  S
O3318      H3319   0.992       .  S
C3321      C3322   1.400       .  A
C3321      C3326   1.413       .  A
C3322      C3323   1.397       .  A
C3322      H3327   1.084       .  S
C3323      C3324   1.412       .  A
C3323      O3328   1.373       .  S
C3324      C3325   1.400       .  A
C3325      C3326   1.403       .  A
C3325      H3329   1.084       .  S
C3326      O3330   1.372       .  S
O3328      H3332   0.992       .  S
O3330      H3331   0.992       .  S
C3333      C3334   1.399       .  A
C3333      C3338   1.405       .  A
C3334      C3335   1.399       .  A
C3334      H3339   1.084       .  S
C3335      C3336   1.416       .  A
C3335      O3340   1.371       .  S
C3336      C3337   1.411       .  A
C3337      C3338   1.402       .  A
C3337      H3341   1.083       .  S
C3338      O3342   1.372       .  S
O3340      H3344   0.992       .  S
O3342      H3343   0.992       .  S
C3345      C3346   1.411       .  A
C3345      C3350   1.418       .  A
C3346      C3347   1.403       .  A
C3346      H3351   1.083       .  S
C3347      C3348   1.405       .  A
C3347      O3352   1.372       .  S
C3348      C3349   1.400       .  A
C3349      C3350   1.404       .  A
C3349      H3353   1.084       .  S
C3350      O3354   1.371       .  S
O3352      H3356   0.992       .  S
O3354      H3355   0.992       .  S
C3357      C3358   1.401       .  A
C3357      C3362   1.406       .  A
C3358      C3359   1.403       .  A
C3358      H3363   1.084       .  S
C3359      C3360   1.414       .  A
C3359      O3364   1.371       .  S
C3360      C3361   1.409       .  A
C3361      C3362   1.402       .  A
C3361      H3365   1.083       .  S
C3362      O3366   1.372       .  S
O3364      H3368   0.992       .  S
O3366      H3367   0.992       .  S
C3369      C3370   1.410       .  A
C3369      C3374   1.414       .  A
C3370      C3371   1.401       .  A
C3370      H3375   1.083       .  S
C3371      C3372   1.404       .  A
C3371      O3376   1.371       .  S
C3372      C3373   1.401       .  A
C3373      C3374   1.402       .  A
C3373      H3377   1.084       .  S
C3374      O3378   1.371       .  S
O3376      H3380   0.992       .  S
O3378      H3379   0.992       .  S
C3381      C3382   1.408       .  A
C3381      C3386   1.414       .  A
C3382      C3383   1.398       .  A
C3382      H3387   1.083       .  S
C3383      C3384   1.405       .  A
C3383      O3388   1.372       .  S
C3384      C3385   1.401       .  A
C3385      C3386   1.402       .  A
C3385      H3389   1.084       .  S
C3386      O3390   1.372       .  S
O3388      H3392   0.992       .  S
O3390      H3391   0.992       .  S
C3393      C3394   1.405       .  A
C3393      C3398   1.406       .  A
C3394      C3395   1.396       .  A
C3394      H3399   1.084       .  S
C3395      C3396   1.403       .  A
C3395      O3400   1.372       .  S
C3396      C3397   1.406       .  A
C3397      C3398   1.405       .  A
C3397      H3401   1.083       .  S
C3398      O3402   1.371       .  S
O3400      H3404   0.992       .  S
O3402      H3403   0.992       .  S
C3405      C3406   1.400       .  A
C3405      C3410   1.406       .  A
C3406      C3407   1.403       .  A
C3406      H3411   1.084       .  S
C3407      C3408   1.418       .  A
C3407      O3412   1.371       .  S
C3408      C3409   1.410       .  A
C3409      C3410   1.404       .  A
C3409      H3413   1.083       .  S
C3410      O3414   1.372       .  S
O3412      H3416   0.992       .  S
O3414      H3415   0.992       .  S
C3417      C3418   1.412       .  A
C3417      C3422   1.417       .  A
C3418      C3419   1.404       .  A
C3418      H3423   1.083       .  S
C3419      C3420   1.405       .  A
C3419      O3424   1.371       .  S
C3420      C3421   1.402       .  A
C3421      C3422   1.405       .  A
C3421      H3425   1.084       .  S
C3422      O3426   1.371       .  S
O3424      H3428   0.992       .  S
O3426      H3427   0.992       .  S
C3429      C3430   1.410       .  A
C3429      C3434   1.417       .  A
C3430      C3431   1.403       .  A
C3430      H3435   1.083       .  S
C3431      C3432   1.405       .  A
C3431      O3436   1.371       .  S
C3432      C3433   1.401       .  A
C3433      C3434   1.404       .  A
C3433      H3437   1.084       .  S
C3434      O3438   1.371       .  S
O3436      H3440   0.992       .  S
O3438      H3439   0.992       .  S
C3441      C3442   1.411       .  A
C3441      C3446   1.415       .  A
C3442      C3443   1.404       .  A
C3442      H3447   1.083       .  S
C3443      C3444   1.406       .  A
C3443      O3448   1.371       .  S
C3444      C3445   1.403       .  A
C3445      C3446   1.407       .  A
C3445      H3449   1.083       .  S
C3446      O3450   1.371       .  S
O3448      H3452   0.992       .  S
O3450      H3451   0.992       .  S
C3453      C3454   1.402       .  A
C3453      C3458   1.406       .  A
C3454      C3455   1.404       .  A
C3454      H3459   1.084       .  S
C3455      C3456   1.417       .  A
C3455      O3460   1.371       .  S
C3456      C3457   1.411       .  A
C3457      C3458   1.404       .  A
C3457      H3461   1.083       .  S
C3458      O3462   1.371       .  S
O3460      H3464   0.992       .  S
O3462      H3463   0.992       .  S
C3465      C3466   1.403       .  A
C3465      C3470   1.405       .  A
C3466      C3467   1.407       .  A
C3466      H3471   1.083       .  S
C3467      C3468   1.417       .  A
C3467      O3472   1.370       .  S
C3468      C3469   1.412       .  A
C3469      C3470   1.405       .  A
C3469      H3473   1.083       .  S
C3470      O3474   1.371       .  S
O3472      H3476   0.992       .  S
O3474      H3475   0.992       .  S
C3477      C3478   1.409       .  A
C3477      C3482   1.417       .  A
C3478      C3479   1.403       .  A
C3478      H3483   1.083       .  S
C3479      C3480   1.406       .  A
C3479      O3484   1.371       .  S
C3480      C3481   1.400       .  A
C3481      C3482   1.403       .  A
C3481      H3485   1.084       .  S
C3482      O3486   1.371       .  S
O3484      H3488   0.992       .  S
O3486      H3487   0.992       .  S
C3489      C3490   1.412       .  A
C3489      C3494   1.415       .  A
C3490      C3491   1.402       .  A
C3490      H3495   1.083       .  S
C3491      C3492   1.404       .  A
C3491      O3496   1.372       .  S
C3492      C3493   1.404       .  A
C3493      C3494   1.408       .  A
C3493      H3497   1.083       .  S
C3494      O3498   1.371       .  S
O3496      H3500   0.992       .  S
O3498      H3499   0.992       .  S
C3501      C3502   1.408       .  A
C3501      C3506   1.420       .  A
C3502      C3503   1.400       .  A
C3502      H3507   1.083       .  S
C3503      C3504   1.406       .  A
C3503      O3508   1.372       .  S
C3504      C3505   1.400       .  A
C3505      C3506   1.404       .  A
C3505      H3509   1.084       .  S
C3506      O3510   1.372       .  S
O3508      H3512   0.992       .  S
O3510      H3511   0.992       .  S
C3513      C3514   1.408       .  A
C3513      C3518   1.417       .  A
C3514      C3515   1.401       .  A
C3514      H3519   1.083       .  S
C3515      C3516   1.405       .  A
C3515      O3520   1.371       .  S
C3516      C3517   1.399       .  A
C3517      C3518   1.401       .  A
C3517      H3521   1.084       .  S
C3518      O3522   1.372       .  S
O3520      H3524   0.992       .  S
O3522      H3523   0.992       .  S
C3525      C3526   1.403       .  A
C3525      C3530   1.403       .  A
C3526      C3527   1.399       .  A
C3526      H3531   1.084       .  S
C3527      C3528   1.411       .  A
C3527      O3532   1.372       .  S
C3528      C3529   1.409       .  A
C3529      C3530   1.399       .  A
C3529      H3533   1.083       .  S
C3530      O3534   1.371       .  S
O3532      H3536   0.992       .  S
O3534      H3535   0.992       .  S
C3537      C3538   1.403       .  A
C3537      C3542   1.405       .  A
C3538      C3539   1.402       .  A
C3538      H3543   1.083       .  S
C3539      C3540   1.408       .  A
C3539      O3544   1.372       .  S
C3540      C3541   1.402       .  A
C3541      C3542   1.397       .  A
C3541      H3545   1.084       .  S
C3542      O3546   1.371       .  S
O3544      H3548   0.992       .  S
O3546      H3547   0.992       .  S
C3549      C3550   1.407       .  A
C3549      C3554   1.404       .  A
C3550      C3551   1.403       .  A
C3550      H3555   1.083       .  S
C3551      C3552   1.406       .  A
C3551      O3556   1.371       .  S
C3552      C3553   1.406       .  A
C3553      C3554   1.394       .  A
C3553      H3557   1.084       .  S
C3554      O3558   1.372       .  S
O3556      H3560   0.992       .  S
O3558      H3559   0.992       .  S
C3561      C3562   1.406       .  A
C3561      C3566   1.408       .  A
C3562      C3563   1.394       .  A
C3562      H3567   1.084       .  S
C3563      C3564   1.403       .  A
C3563      O3568   1.372       .  S
C3564      C3565   1.404       .  A
C3565      C3566   1.403       .  A
C3565      H3569   1.083       .  S
C3566      O3570   1.371       .  S
O3568      H3572   0.992       .  S
O3570      H3571   0.992       .  S
C3573      C3574   1.408       .  A
C3573      C3578   1.415       .  A
C3574      C3575   1.403       .  A
C3574      H3579   1.083       .  S
C3575      C3576   1.406       .  A
C3575      O3580   1.372       .  S
C3576      C3577   1.399       .  A
C3577      C3578   1.399       .  A
C3577      H3581   1.084       .  S
C3578      O3582   1.371       .  S
O3580      H3584   0.992       .  S
O3582      H3583   0.992       .  S
C3585      C3586   1.405       .  A
C3585      C3590   1.405       .  A
C3586      C3587   1.397       .  A
C3586      H3591   1.084       .  S
C3587      C3588   1.404       .  A
C3587      O3592   1.372       .  S
C3588      C3589   1.409       .  A
C3589      C3590   1.404       .  A
C3589      H3593   1.084       .  S
C3590      O3594   1.371       .  S
O3592      H3596   0.992       .  S
O3594      H3595   0.992       .  S
C3597      C3598   1.408       .  A
C3597      C3602   1.417       .  A
C3598      C3599   1.398       .  A
C3598      H3603   1.083       .  S
C3599      C3600   1.404       .  A
C3599      O3604   1.372       .  S
C3600      C3601   1.399       .  A
C3601      C3602   1.400       .  A
C3601      H3605   1.084       .  S
C3602      O3606   1.372       .  S
O3604      H3608   0.992       .  S
O3606      H3607   0.992       .  S
C3609      C3610   1.403       .  A
C3609      C3614   1.408       .  A
C3610      C3611   1.397       .  A
C3610      H3615   1.084       .  S
C3611      C3612   1.404       .  A
C3611      O3616   1.371       .  S
C3612      C3613   1.403       .  A
C3613      C3614   1.401       .  A
C3613      H3617   1.084       .  S
C3614      O3618   1.372       .  S
O3616      H3620   0.992       .  S
O3618      H3619   0.992       .  S
C3621      C3622   1.408       .  A
C3621      C3626   1.407       .  A
C3622      C3623   1.394       .  A
C3622      H3627   1.084       .  S
C3623      C3624   1.404       .  A
C3623      O3628   1.372       .  S
C3624      C3625   1.408       .  A
C3625      C3626   1.406       .  A
C3625      H3629   1.083       .  S
C3626      O3630   1.371       .  S
O3628      H3632   0.992       .  S
O3630      H3631   0.992       .  S
C3633      C3634   1.402       .  A
C3633      C3638   1.411       .  A
C3634      C3635   1.405       .  A
C3634      H3639   1.083       .  S
C3635      C3636   1.411       .  A
C3635      O3640   1.371       .  S
C3636      C3637   1.400       .  A
C3637      C3638   1.396       .  A
C3637      H3641   1.084       .  S
C3638      O3642   1.372       .  S
O3640      H3644   0.992       .  S
O3642      H3643   0.992       .  S
C3645      C3646   1.408       .  A
C3645      C3650   1.411       .  A
C3646      C3647   1.394       .  A
C3646      H3651   1.084       .  S
C3647      C3648   1.402       .  A
C3647      O3652   1.372       .  S
C3648      C3649   1.402       .  A
C3649      C3650   1.401       .  A
C3649      H3653   1.084       .  S
C3650      O3654   1.371       .  S
O3652      H3656   0.992       .  S
O3654      H3655   0.992       .  S
C3657      C3658   1.409       .  A
C3657      C3662   1.415       .  A
C3658      C3659   1.395       .  A
C3658      H3663   1.083       .  S
C3659      C3660   1.402       .  A
C3659      O3664   1.372       .  S
C3660      C3661   1.398       .  A
C3661      C3662   1.397       .  A
C3661      H3665   1.084       .  S
C3662      O3666   1.372       .  S
O3664      H3668   0.992       .  S
O3666      H3667   0.992       .  S
C3669      C3670   1.409       .  A
C3669      C3674   1.411       .  A
C3670      C3671   1.397       .  A
C3670      H3675   1.083       .  S
C3671      C3672   1.403       .  A
C3671      O3676   1.372       .  S
C3672      C3673   1.401       .  A
C3673      C3674   1.399       .  A
C3673      H3677   1.084       .  S
C3674      O3678   1.372       .  S
O3676      H3680   0.992       .  S
O3678      H3679   0.992       .  S
C3681      C3682   1.404       .  A
C3681      C3686   1.402       .  A
C3682      C3683   1.394       .  A
C3682      H3687   1.085       .  S
C3683      C3684   1.403       .  A
C3683      O3688   1.372       .  S
C3684      C3685   1.406       .  A
C3685      C3686   1.398       .  A
C3685      H3689   1.084       .  S
C3686      O3690   1.371       .  S
O3688      H3692   0.992       .  S
O3690      H3691   0.992       .  S
C3693      C3694   1.400       .  A
C3693      C3698   1.409       .  A
C3694      C3695   1.399       .  A
C3694      H3699   1.084       .  S
C3695      C3696   1.409       .  A
C3695      O3700   1.372       .  S
C3696      C3697   1.398       .  A
C3697      C3698   1.392       .  A
C3697      H3701   1.084       .  S
C3698      O3702   1.373       .  S
O3700      H3704   0.992       .  S
O3702      H3703   0.992       .  S
C3705      C3706   1.404       .  A
C3705      C3710   1.405       .  A
C3706      C3707   1.394       .  A
C3706      H3711   1.084       .  S
C3707      C3708   1.403       .  A
C3707      O3712   1.372       .  S
C3708      C3709   1.406       .  A
C3709      C3710   1.401       .  A
C3709      H3713   1.084       .  S
C3710      O3714   1.371       .  S
O3712      H3716   0.992       .  S
O3714      H3715   0.992       .  S
C3717      C3718   1.409       .  A
C3717      C3722   1.417       .  A
C3718      C3719   1.402       .  A
C3718      H3723   1.083       .  S
C3719      C3720   1.405       .  A
C3719      O3724   1.371       .  S
C3720      C3721   1.399       .  A
C3721      C3722   1.398       .  A
C3721      H3725   1.084       .  S
C3722      O3726   1.372       .  S
O3724      H3728   0.992       .  S
O3726      H3727   0.992       .  S
C3729      C3730   1.411       .  A
C3729      C3734   1.410       .  A
C3730      C3731   1.398       .  A
C3730      H3735   1.084       .  S
C3731      C3732   1.403       .  A
C3731      O3736   1.372       .  S
C3732      C3733   1.403       .  A
C3733      C3734   1.401       .  A
C3733      H3737   1.084       .  S
C3734      O3738   1.371       .  S
O3736      H3740   0.992       .  S
O3738      H3739   0.992       .  S
C3741      C3742   1.410       .  A
C3741      C3746   1.415       .  A
C3742      C3743   1.398       .  A
C3742      H3747   1.083       .  S
C3743      C3744   1.403       .  A
C3743      O3748   1.372       .  S
C3744      C3745   1.401       .  A
C3745      C3746   1.402       .  A
C3745      H3749   1.084       .  S
C3746      O3750   1.372       .  S
O3748      H3752   0.992       .  S
O3750      H3751   0.992       .  S
C3753      C3754   1.400       .  A
C3753      C3758   1.402       .  A
C3754      C3755   1.398       .  A
C3754      H3759   1.084       .  S
C3755      C3756   1.415       .  A
C3755      O3760   1.372       .  S
C3756      C3757   1.409       .  A
C3757      C3758   1.396       .  A
C3757      H3761   1.083       .  S
C3758      O3762   1.372       .  S
O3760      H3764   0.992       .  S
O3762      H3763   0.992       .  S
C3765      C3766   1.408       .  A
C3765      C3770   1.416       .  A
C3766      C3767   1.398       .  A
C3766      H3771   1.083       .  S
C3767      C3768   1.404       .  A
C3767      O3772   1.372       .  S
C3768      C3769   1.399       .  A
C3769      C3770   1.397       .  A
C3769      H3773   1.084       .  S
C3770      O3774   1.371       .  S
O3772      H3776   0.992       .  S
O3774      H3775   0.992       .  S
C3777      C3778   1.401       .  A
C3777      C3782   1.410       .  A
C3778      C3779   1.401       .  A
C3778      H3783   1.084       .  S
C3779      C3780   1.409       .  A
C3779      O3784   1.371       .  S
C3780      C3781   1.400       .  A
C3781      C3782   1.398       .  A
C3781      H3785   1.084       .  S
C3782      O3786   1.373       .  S
O3784      H3788   0.992       .  S
O3786      H3787   0.992       .  S
C3789      C3790   1.400       .  A
C3789      C3794   1.410       .  A
C3790      C3791   1.397       .  A
C3790      H3795   1.084       .  S
C3791      C3792   1.411       .  A
C3791      O3796   1.372       .  S
C3792      C3793   1.401       .  A
C3793      C3794   1.401       .  A
C3793      H3797   1.084       .  S
C3794      O3798   1.371       .  S
O3796      H3800   0.992       .  S
O3798      H3799   0.992       .  S
C3801      C3802   1.409       .  A
C3801      C3806   1.411       .  A
C3802      C3803   1.397       .  A
C3802      H3807   1.084       .  S
C3803      C3804   1.403       .  A
C3803      O3808   1.371       .  S
C3804      C3805   1.403       .  A
C3805      C3806   1.401       .  A
C3805      H3809   1.084       .  S
C3806      O3810   1.371       .  S
O3808      H3812   0.992       .  S
O3810      H3811   0.992       .  S
C3813      C3814   1.409       .  A
C3813      C3818   1.411       .  A
C3814      C3815   1.397       .  A
C3814      H3819   1.083       .  S
C3815      C3816   1.402       .  A
C3815      O3820   1.372       .  S
C3816      C3817   1.403       .  A
C3817      C3818   1.401       .  A
C3817      H3821   1.084       .  S
C3818      O3822   1.372       .  S
O3820      H3824   0.992       .  S
O3822      H3823   0.992       .  S
C3825      C3826   1.401       .  A
C3825      C3830   1.412       .  A
C3826      C3827   1.402       .  A
C3826      H3831   1.084       .  S
C3827      C3828   1.411       .  A
C3827      O3832   1.372       .  S
C3828      C3829   1.401       .  A
C3829      C3830   1.400       .  A
C3829      H3833   1.084       .  S
C3830      O3834   1.373       .  S
O3832      H3836   0.992       .  S
O3834      H3835   0.992       .  S
C3837      C3838   1.410       .  A
C3837      C3842   1.412       .  A
C3838      C3839   1.398       .  A
C3838      H3843   1.083       .  S
C3839      C3840   1.403       .  A
C3839      O3844   1.372       .  S
C3840      C3841   1.402       .  A
C3841      C3842   1.399       .  A
C3841      H3845   1.084       .  S
C3842      O3846   1.372       .  S
O3844      H3848   0.992       .  S
O3846      H3847   0.992       .  S
C3849      C3850   1.406       .  A
C3849      C3854   1.405       .  A
C3850      C3851   1.397       .  A
C3850      H3855   1.084       .  S
C3851      C3852   1.406       .  A
C3851      O3856   1.373       .  S
C3852      C3853   1.407       .  A
C3853      C3854   1.401       .  A
C3853      H3857   1.083       .  S
C3854      O3858   1.371       .  S
O3856      H3860   0.992       .  S
O3858      H3859   0.992       .  S
C3861      C3862   1.404       .  A
C3861      C3866   1.406       .  A
C3862      C3863   1.396       .  A
C3862      H3867   1.084       .  S
C3863      C3864   1.404       .  A
C3863      O3868   1.372       .  S
C3864      C3865   1.404       .  A
C3865      C3866   1.401       .  A
C3865      H3869   1.083       .  S
C3866      O3870   1.371       .  S
O3868      H3872   0.992       .  S
O3870      H3871   0.992       .  S
C3873      C3874   1.408       .  A
C3873      C3878   1.413       .  A
C3874      C3875   1.399       .  A
C3874      H3879   1.083       .  S
C3875      C3876   1.404       .  A
C3875      O3880   1.371       .  S
C3876      C3877   1.401       .  A
C3877      C3878   1.396       .  A
C3877      H3881   1.084       .  S
C3878      O3882   1.372       .  S
O3880      H3884   0.992       .  S
O3882      H3883   0.992       .  S
C3885      C3886   1.409       .  A
C3885      C3890   1.410       .  A
C3886      C3887   1.394       .  A
C3886      H3891   1.083       .  S
C3887      C3888   1.401       .  A
C3887      O3892   1.372       .  S
C3888      C3889   1.404       .  A
C3889      C3890   1.403       .  A
C3889      H3893   1.084       .  S
C3890      O3894   1.372       .  S
O3892      H3896   0.992       .  S
O3894      H3895   0.992       .  S
C3897      C3898   1.402       .  A
C3897      C3902   1.410       .  A
C3898      C3899   1.403       .  A
C3898      H3903   1.084       .  S
C3899      C3900   1.409       .  A
C3899      O3904   1.371       .  S
C3900      C3901   1.399       .  A
C3901      C3902   1.396       .  A
C3901      H3905   1.084       .  S
C3902      O3906   1.373       .  S
O3904      H3908   0.992       .  S
O3906      H3907   0.992       .  S
C3909      C3910   1.405       .  A
C3909      C3914   1.406       .  A
C3910      C3911   1.397       .  A
C3910      H3915   1.083       .  S
C3911      C3912   1.405       .  A
C3911      O3916   1.372       .  S
C3912      C3913   1.408       .  A
C3913      C3914   1.403       .  A
C3913      H3917   1.083       .  S
C3914      O3918   1.372       .  S
O3916      H3920   0.992       .  S
O3918      H3919   0.992       .  S
C3921      C3922   1.398       .  A
C3921      C3926   1.403       .  A
C3922      C3923   1.398       .  A
C3922      H3927   1.084       .  S
C3923      C3924   1.417       .  A
C3923      O3928   1.372       .  S
C3924      C3925   1.408       .  A
C3925      C3926   1.396       .  A
C3925      H3929   1.083       .  S
C3926      O3930   1.372       .  S
O3928      H3932   0.992       .  S
O3930      H3931   0.992       .  S
C3933      C3934   1.401       .  A
C3933      C3938   1.405       .  A
C3934      C3935   1.399       .  A
C3934      H3939   1.084       .  S
C3935      C3936   1.416       .  A
C3935      O3940   1.372       .  S
C3936      C3937   1.408       .  A
C3937      C3938   1.399       .  A
C3937      H3941   1.083       .  S
C3938      O3942   1.371       .  S
O3940      H3944   0.992       .  S
O3942      H3943   0.992       .  S
C3945      C3946   1.400       .  A
C3945      C3950   1.412       .  A
C3946      C3947   1.399       .  A
C3946      H3951   1.084       .  S
C3947      C3948   1.409       .  A
C3947      O3952   1.372       .  S
C3948      C3949   1.396       .  A
C3949      C3950   1.393       .  A
C3949      H3953   1.084       .  S
C3950      O3954   1.372       .  S
O3952      H3956   0.992       .  S
O3954      H3955   0.992       .  S
C3957      C3958   1.406       .  A
C3957      C3962   1.406       .  A
C3958      C3959   1.394       .  A
C3958      H3963   1.084       .  S
C3959      C3960   1.403       .  A
C3959      O3964   1.372       .  S
C3960      C3961   1.405       .  A
C3961      C3962   1.400       .  A
C3961      H3965   1.084       .  S
C3962      O3966   1.372       .  S
O3964      H3968   0.992       .  S
O3966      H3967   0.992       .  S
C3969      C3970   1.403       .  A
C3969      C3974   1.408       .  A
C3970      C3971   1.403       .  A
C3970      H3975   1.084       .  S
C3971      C3972   1.408       .  A
C3971      O3976   1.371       .  S
C3972      C3973   1.400       .  A
C3973      C3974   1.398       .  A
C3973      H3977   1.084       .  S
C3974      O3978   1.372       .  S
O3976      H3980   0.992       .  S
O3978      H3979   0.992       .  S
C3981      C3982   1.405       .  A
C3981      C3986   1.417       .  A
C3982      C3983   1.398       .  A
C3982      H3987   1.083       .  S
C3983      C3984   1.406       .  A
C3983      O3988   1.372       .  S
C3984      C3985   1.398       .  A
C3985      C3986   1.399       .  A
C3985      H3989   1.084       .  S
C3986      O3990   1.372       .  S
O3988      H3992   0.992       .  S
O3990      H3991   0.992       .  S
C3993      C3994   1.398       .  A
C3993      C3998   1.405       .  A
C3994      C3995   1.398       .  A
C3994      H3999   1.084       .  S
C3995      C3996   1.416       .  A
C3995      O4000   1.372       .  S
C3996      C3997   1.406       .  A
C3997      C3998   1.397       .  A
C3997      H4001   1.083       .  S
C3998      O4002   1.372       .  S
O4000      H4004   0.992       .  S
O4002      H4003   0.992       .  S
C4005      C4006   1.405       .  A
C4005      C4010   1.414       .  A
C4006      C4007   1.396       .  A
C4006      H4011   1.084       .  S
C4007      C4008   1.404       .  A
C4007      O4012   1.372       .  S
C4008      C4009   1.397       .  A
C4009      C4010   1.395       .  A
C4009      H4013   1.084       .  S
C4010      O4014   1.372       .  S
O4012      H4016   0.992       .  S
O4014      H4015   0.992       .  S
C4017      C4018   1.405       .  A
C4017      C4022   1.405       .  A
C4018      C4019   1.397       .  A
C4018      H4023   1.084       .  S
C4019      C4020   1.404       .  A
C4019      O4024   1.372       .  S
C4020      C4021   1.405       .  A
C4021      C4022   1.401       .  A
C4021      H4025   1.084       .  S
C4022      O4026   1.372       .  S
O4024      H4028   0.992       .  S
O4026      H4027   0.992       .  S
C4029      C4030   1.402       .  A
C4029      C4034   1.406       .  A
C4030      C4031   1.393       .  A
C4030      H4035   1.084       .  S
C4031      C4032   1.402       .  A
C4031      O4036   1.372       .  S
C4032      C4033   1.403       .  A
C4033      C4034   1.402       .  A
C4033      H4037   1.083       .  S
C4034      O4038   1.372       .  S
O4036      H4040   0.992       .  S
O4038      H4039   0.992       .  S
C4041      C4042   1.409       .  A
C4041      C4046   1.414       .  A
C4042      C4043   1.398       .  A
C4042      H4047   1.083       .  S
C4043      C4044   1.403       .  A
C4043      O4048   1.371       .  S
C4044      C4045   1.398       .  A
C4045      C4046   1.395       .  A
C4045      H4049   1.084       .  S
C4046      O4050   1.372       .  S
O4048      H4052   0.992       .  S
O4050      H4051   0.992       .  S
C4053      C4054   1.403       .  A
C4053      C4058   1.404       .  A
C4054      C4055   1.403       .  A
C4054      H4059   1.083       .  S
C4055      C4056   1.407       .  A
C4055      O4060   1.371       .  S
C4056      C4057   1.403       .  A
C4057      C4058   1.396       .  A
C4057      H4061   1.084       .  S
C4058      O4062   1.372       .  S
O4060      H4064   0.991       .  S
O4062      H4063   0.992       .  S
C4065      C4066   1.400       .  A
C4065      C4070   1.404       .  A
C4066      C4067   1.399       .  A
C4066      H4071   1.084       .  S
C4067      C4068   1.414       .  A
C4067      O4072   1.372       .  S
C4068      C4069   1.405       .  A
C4069      C4070   1.397       .  A
C4069      H4073   1.083       .  S
C4070      O4074   1.372       .  S
O4072      H4076   0.992       .  S
O4074      H4075   0.992       .  S
C4077      C4078   1.398       .  A
C4077      C4082   1.405       .  A
C4078      C4079   1.400       .  A
C4078      H4083   1.084       .  S
C4079      C4080   1.419       .  A
C4079      O4084   1.372       .  S
C4080      C4081   1.408       .  A
C4081      C4082   1.401       .  A
C4081      H4085   1.083       .  S
C4082      O4086   1.371       .  S
O4084      H4088   0.992       .  S
O4086      H4087   0.992       .  S
C4089      C4090   1.406       .  A
C4089      C4094   1.405       .  A
C4090      C4091   1.400       .  A
C4090      H4095   1.084       .  S
C4091      C4092   1.404       .  A
C4091      O4096   1.371       .  S
C4092      C4093   1.406       .  A
C4093      C4094   1.400       .  A
C4093      H4097   1.084       .  S
C4094      O4098   1.372       .  S
O4096      H4100   0.992       .  S
O4098      H4099   0.992       .  S
C4101      C4102   1.396       .  A
C4101      C4106   1.405       .  A
C4102      C4103   1.392       .  A
C4102      H4107   1.084       .  S
C4103      C4104   1.415       .  A
C4103      O4108   1.372       .  S
C4104      C4105   1.405       .  A
C4105      C4106   1.399       .  A
C4105      H4109   1.083       .  S
C4106      O4110   1.371       .  S
O4108      H4112   0.992       .  S
O4110      H4111   0.992       .  S
C4113      C4114   1.399       .  A
C4113      C4118   1.409       .  A
C4114      C4115   1.397       .  A
C4114      H4119   1.084       .  S
C4115      C4116   1.411       .  A
C4115      O4120   1.373       .  S
C4116      C4117   1.403       .  A
C4117      C4118   1.404       .  A
C4117      H4121   1.083       .  S
C4118      O4122   1.371       .  S
O4120      H4124   0.992       .  S
O4122      H4123   0.992       .  S
C4125      C4126   1.400       .  A
C4125      C4130   1.407       .  A
C4126      C4127   1.399       .  A
C4126      H4131   1.084       .  S
C4127      C4128   1.409       .  A
C4127      O4132   1.372       .  S
C4128      C4129   1.402       .  A
C4129      C4130   1.401       .  A
C4129      H4133   1.084       .  S
C4130      O4134   1.371       .  S
O4132      H4136   0.992       .  S
O4134      H4135   0.992       .  S
C4137      C4138   1.406       .  A
C4137      C4142   1.416       .  A
C4138      C4139   1.399       .  A
C4138      H4143   1.083       .  S
C4139      C4140   1.406       .  A
C4139      O4144   1.372       .  S
C4140      C4141   1.399       .  A
C4141      C4142   1.400       .  A
C4141      H4145   1.084       .  S
C4142      O4146   1.372       .  S
O4144      H4148   0.992       .  S
O4146      H4147   0.992       .  S
C4149      C4150   1.407       .  A
C4149      C4154   1.402       .  A
C4150      C4151   1.404       .  A
C4150      H4155   1.084       .  S
C4151      C4152   1.405       .  A
C4151      O4156   1.371       .  S
C4152      C4153   1.407       .  A
C4153      C4154   1.395       .  A
C4153      H4157   1.084       .  S
C4154      O4158   1.372       .  S
O4156      H4160   0.992       .  S
O4158      H4159   0.992       .  S
C4161      C4162   1.406       .  A
C4161      C4166   1.406       .  A
C4162      C4163   1.396       .  A
C4162      H4167   1.084       .  S
C4163      C4164   1.403       .  A
C4163      O4168   1.372       .  S
C4164      C4165   1.405       .  A
C4165      C4166   1.402       .  A
C4165      H4169   1.084       .  S
C4166      O4170   1.372       .  S
O4168      H4172   0.992       .  S
O4170      H4171   0.992       .  S
C4173      C4174   1.404       .  A
C4173      C4178   1.404       .  A
C4174      C4175   1.402       .  A
C4174      H4179   1.084       .  S
C4175      C4176   1.411       .  A
C4175      O4180   1.371       .  S
C4176      C4177   1.411       .  A
C4177      C4178   1.401       .  A
C4177      H4181   1.083       .  S
C4178      O4182   1.371       .  S
O4180      H4184   0.992       .  S
O4182      H4183   0.992       .  S
C4185      C4186   1.409       .  A
C4185      C4190   1.414       .  A
C4186      C4187   1.399       .  A
C4186      H4191   1.083       .  S
C4187      C4188   1.405       .  A
C4187      O4192   1.372       .  S
C4188      C4189   1.400       .  A
C4189      C4190   1.401       .  A
C4189      H4193   1.084       .  S
C4190      O4194   1.372       .  S
O4192      H4196   0.992       .  S
O4194      H4195   0.992       .  S
C4197      C4198   1.401       .  A
C4197      C4202   1.407       .  A
C4198      C4199   1.401       .  A
C4198      H4203   1.083       .  S
C4199      C4200   1.408       .  A
C4199      O4204   1.372       .  S
C4200      C4201   1.402       .  A
C4201      C4202   1.399       .  A
C4201      H4205   1.084       .  S
C4202      O4206   1.371       .  S
O4204      H4208   0.992       .  S
O4206      H4207   0.992       .  S
C4209      C4210   1.408       .  A
C4209      C4214   1.414       .  A
C4210      C4211   1.403       .  A
C4210      H4215   1.083       .  S
C4211      C4212   1.407       .  A
C4211      O4216   1.372       .  S
C4212      C4213   1.402       .  A
C4213      C4214   1.401       .  A
C4213      H4217   1.084       .  S
C4214      O4218   1.371       .  S
O4216      H4220   0.992       .  S
O4218      H4219   0.992       .  S
C4221      C4222   1.409   1_655  A
C4221      C4226   1.415   1_655  A
C4222      C4223   1.401       .  A
C4222      H4227   1.083   1_455  S
C4223      C4224   1.405       .  A
C4223      O4228   1.371       .  S
C4224      C4225   1.402       .  A
C4225      C4226   1.404       .  A
C4225      H4229   1.083       .  S
C4226      O4230   1.371       .  S
O4228      H4232   0.992       .  S
O4230      H4231   0.992       .  S
C4233      C4234   1.410       .  A
C4233      C4238   1.416       .  A
C4234      C4235   1.401       .  A
C4234      H4239   1.083   1_545  S
C4235      C4236   1.404       .  A
C4235      O4240   1.371       .  S
C4236      C4237   1.400       .  A
C4237      C4238   1.401       .  A
C4237      H4241   1.084       .  S
C4238      O4242   1.371       .  S
O4240      H4244   0.992       .  S
O4242      H4243   0.992       .  S
C4245      C4246   1.410       .  A
C4245      C4250   1.416       .  A
C4246      C4247   1.405       .  A
C4246      H4251   1.083       .  S
C4247      C4248   1.407       .  A
C4247      O4252   1.371       .  S
C4248      C4249   1.402       .  A
C4249      C4250   1.402       .  A
C4249      H4253   1.084       .  S
C4250      O4254   1.370       .  S
O4252      H4256   0.992       .  S
O4254      H4255   0.992       .  S
C4257      C4258   1.407       .  A
C4257      C4262   1.415       .  A
C4258      C4259   1.401       .  A
C4258      H4263   1.083   1_554  S
C4259      C4260   1.409       .  A
C4259      O4264   1.372       .  S
C4260      C4261   1.402       .  A
C4261      C4262   1.404       .  A
C4261      H4265   1.084       .  S
C4262      O4266   1.372       .  S
O4264      H4268   0.992       .  S
O4266      H4267   0.992       .  S
C4269      C4270   1.409       .  A
C4269      C4274   1.416       .  A
C4270      C4271   1.401       .  A
C4270      H4275   1.083   1_455  S
C4271      C4272   1.405       .  A
C4271      O4276   1.372       .  S
C4272      C4273   1.401       .  A
C4273      C4274   1.403       .  A
C4273      H4277   1.083       .  S
C4274      O4278   1.370       .  S
O4276      H4280   0.992       .  S
O4278      H4279   0.992       .  S
C4281      C4282   1.399       .  A
C4281      C4286   1.405       .  A
C4282      C4283   1.401       .  A
C4282      H4287   1.084       .  S
C4283      C4284   1.418       .  A
C4283      O4288   1.371       .  S
C4284      C4285   1.411       .  A
C4285      C4286   1.403       .  A
C4285      H4289   1.083       .  S
C4286      O4290   1.371       .  S
O4288      H4292   0.992       .  S
O4290      H4291   0.992       .  S
C4293      C4294   1.410       .  A
C4293      C4298   1.415       .  A
C4294      C4295   1.400       .  A
C4294      H4299   1.083       .  S
C4295      C4296   1.404       .  A
C4295      O4300   1.372       .  S
C4296      C4297   1.402       .  A
C4297      C4298   1.404       .  A
C4297      H4301   1.084       .  S
C4298      O4302   1.371       .  S
O4300      H4304   0.992       .  S
O4302      H4303   0.992       .  S
C4305      C4306   1.410       .  A
C4305      C4310   1.418       .  A
C4306      C4307   1.404       .  A
C4306      H4311   1.083       .  S
C4307      C4308   1.406       .  A
C4307      O4312   1.371       .  S
C4308      C4309   1.400       .  A
C4309      C4310   1.403       .  A
C4309      H4313   1.084       .  S
C4310      O4314   1.371       .  S
O4312      H4316   0.992       .  S
O4314      H4315   0.992   1_554  S
C4317      C4318   1.409       .  A
C4317      C4322   1.414       .  A
C4318      C4319   1.400       .  A
C4318      H4323   1.083       .  S
C4319      C4320   1.405       .  A
C4319      O4324   1.371       .  S
C4320      C4321   1.402       .  A
C4321      C4322   1.404       .  A
C4321      H4325   1.084       .  S
C4322      O4326   1.372       .  S
O4324      H4328   0.992       .  S
O4326      H4327   0.992       .  S
C4329      C4330   1.409       .  A
C4329      C4334   1.416       .  A
C4330      C4331   1.401       .  A
C4330      H4335   1.083       .  S
C4331      C4332   1.404       .  A
C4331      O4336   1.371       .  S
C4332      C4333   1.402       .  A
C4333      C4334   1.405       .  A
C4333      H4337   1.083       .  S
C4334      O4338   1.371       .  S
O4336      H4340   0.992       .  S
O4338      H4339   0.992       .  S
C4341      C4342   1.410       .  A
C4341      C4346   1.417       .  A
C4342      C4343   1.402       .  A
C4342      H4347   1.083       .  S
C4343      C4344   1.404       .  A
C4343      O4348   1.371       .  S
C4344      C4345   1.399       .  A
C4345      C4346   1.402       .  A
C4345      H4349   1.084       .  S
C4346      O4350   1.370       .  S
O4348      H4352   0.992       .  S
O4350      H4351   0.992       .  S
C4353      C4354   1.407       .  A
C4353      C4358   1.418       .  A
C4354      C4355   1.399       .  A
C4354      H4359   1.083       .  S
C4355      C4356   1.405       .  A
C4355      O4360   1.372       .  S
C4356      C4357   1.398       .  A
C4357      C4358   1.399       .  A
C4357      H4361   1.084       .  S
C4358      O4362   1.372       .  S
O4360      H4364   0.992       .  S
O4362      H4363   0.992       .  S
C4365      C4366   1.401       .  A
C4365      C4370   1.410       .  A
C4366      C4367   1.397       .  A
C4366      H4371   1.084       .  S
C4367      C4368   1.411       .  A
C4367      O4372   1.372       .  S
C4368      C4369   1.400       .  A
C4369      C4370   1.399       .  A
C4369      H4373   1.084       .  S
C4370      O4374   1.372       .  S
O4372      H4376   0.992       .  S
O4374      H4375   0.992       .  S
C4377      C4378   1.402       .  A
C4377      C4382   1.402       .  A
C4378      C4379   1.400       .  A
C4378      H4383   1.084       .  S
C4379      C4380   1.411       .  A
C4379      O4384   1.371       .  S
C4380      C4381   1.412       .  A
C4381      C4382   1.397       .  A
C4381      H4385   1.083       .  S
C4382      O4386   1.372       .  S
O4384      H4388   0.992       .  S
O4386      H4387   0.992       .  S
C4389      C4390   1.404       .  A
C4389      C4394   1.403       .  A
C4390      C4391   1.402       .  A
C4390      H4395   1.084       .  S
C4391      C4392   1.412       .  A
C4391      O4396   1.372       .  S
C4392      C4393   1.410       .  A
C4393      C4394   1.398       .  A
C4393      H4397   1.083       .  S
C4394      O4398   1.372       .  S
O4396      H4400   0.992       .  S
O4398      H4399   0.992       .  S
C4401      C4402   1.400       .  A
C4401      C4406   1.410       .  A
C4402      C4403   1.400       .  A
C4402      H4407   1.084       .  S
C4403      C4404   1.409       .  A
C4403      O4408   1.372       .  S
C4404      C4405   1.399       .  A
C4405      C4406   1.396       .  A
C4405      H4409   1.084       .  S
C4406      O4410   1.373       .  S
O4408      H4412   0.992       .  S
O4410      H4411   0.992       .  S
C4413      C4414   1.406       .  A
C4413      C4418   1.404       .  A
C4414      C4415   1.399       .  A
C4414      H4419   1.084       .  S
C4415      C4416   1.404       .  A
C4415      O4420   1.371       .  S
C4416      C4417   1.405       .  A
C4417      C4418   1.397       .  A
C4417      H4421   1.084       .  S
C4418      O4422   1.373       .  S
O4420      H4424   0.992       .  S
O4422      H4423   0.992       .  S
C4425      C4426   1.407       .  A
C4425      C4430   1.419       .  A
C4426      C4427   1.401       .  A
C4426      H4431   1.083       .  S
C4427      C4428   1.406       .  A
C4427      O4432   1.371       .  S
C4428      C4429   1.399       .  A
C4429      C4430   1.401       .  A
C4429      H4433   1.084       .  S
C4430      O4434   1.372       .  S
O4432      H4436   0.992       .  S
O4434      H4435   0.992       .  S
C4437      C4438   1.404       .  A
C4437      C4442   1.405       .  A
C4438      C4439   1.402       .  A
C4438      H4443   1.083       .  S
C4439      C4440   1.407       .  A
C4439      O4444   1.372       .  S
C4440      C4441   1.404       .  A
C4441      C4442   1.398       .  A
C4441      H4445   1.084       .  S
C4442      O4446   1.372       .  S
O4444      H4448   0.992       .  S
O4446      H4447   0.992       .  S
C4449      C4450   1.409       .  A
C4449      C4454   1.416       .  A
C4450      C4451   1.400       .  A
C4450      H4455   1.083       .  S
C4451      C4452   1.405       .  A
C4451      O4456   1.372       .  S
C4452      C4453   1.401       .  A
C4453      C4454   1.401       .  A
C4453      H4457   1.084       .  S
C4454      O4458   1.372       .  S
O4456      H4460   0.992       .  S
O4458      H4459   0.992       .  S
C4461      C4462   1.401       .  A
C4461      C4466   1.404       .  A
C4462      C4463   1.401       .  A
C4462      H4467   1.084       .  S
C4463      C4464   1.412       .  A
C4463      O4468   1.372       .  S
C4464      C4465   1.410       .  A
C4465      C4466   1.400       .  A
C4465      H4469   1.083       .  S
C4466      O4470   1.372       .  S
O4468      H4472   0.992       .  S
O4470      H4471   0.992       .  S
C4473      C4474   1.398       .  A
C4473      C4478   1.407       .  A
C4474      C4475   1.395       .  A
C4474      H4479   1.084       .  S
C4475      C4476   1.411       .  A
C4475      O4480   1.373       .  S
C4476      C4477   1.401       .  A
C4477      C4478   1.400       .  A
C4477      H4481   1.084       .  S
C4478      O4482   1.371       .  S
O4480      H4484   0.992       .  S
O4482      H4483   0.992       .  S
C4485      C4486   1.403       .  A
C4485      C4490   1.412       .  A
C4486      C4487   1.405       .  A
C4486      H4491   1.083       .  S
C4487      C4488   1.412       .  A
C4487      O4492   1.372       .  S
C4488      C4489   1.397       .  A
C4489      C4490   1.395       .  A
C4489      H4493   1.084       .  S
C4490      O4494   1.373       .  S
O4492      H4496   0.992       .  S
O4494      H4495   0.992       .  S
