geometry optimzed in LAMMPS
_audit_creation_date              2020-11-30 
_audit_creation_method            'lammps2cif' 
_symmetry_space_group_name_H-M    'P1' 
_symmetry_Int_Tables_number       1 
_symmetry_cell_setting            triclinic 
loop_ 
_symmetry_equiv_pos_as_xyz 
  x,y,z 
_cell_length_a                    33.41370470828445 
_cell_length_b                    25.692310644785472 
_cell_length_c                    25.777502151105224 
_cell_angle_alpha                 89.958129310252 
_cell_angle_beta                  90.0570488762149 
_cell_angle_gamma                 88.85542615021184 
loop_ 
_atom_site_label 
_atom_site_type_symbol 
_atom_site_fract_x 
_atom_site_fract_y 
_atom_site_fract_z 
_atom_site_charge 
C1          C  0.63694855  0.12223089  0.12334367     0.03690
C2          C  0.63591440  0.07108491  0.14267077    -0.12460
C3          C  0.66903348  0.04958649  0.16959790     0.01190
C4          C  0.70328189  0.07984975  0.17683027    -0.10990
C5          C  0.70425130  0.13114948  0.15856910     0.03680
C6          C  0.67068007  0.15243834  0.13337827    -0.10410
H7          H  0.61050781  0.04698610  0.13411633     0.09270
H8          H  0.72942253  0.06349987  0.19624908     0.06800
H9          H  0.67194716  0.19181186  0.11839036     0.06650
C10         C  0.63640117  0.42382019  0.23333893     0.03690
C11         C  0.63551499  0.47494085  0.21382997    -0.12460
C12         C  0.66891233  0.49466108  0.18752671     0.01190
C13         C  0.70319506  0.46256618  0.18095095    -0.10990
C14         C  0.70399896  0.41127591  0.19939850     0.03680
C15         C  0.67023738  0.39185587  0.22413793    -0.10410
H16         H  0.60996336  0.50030746  0.22174606     0.09270
H17         H  0.72950260  0.47748908  0.16193149     0.06800
H18         H  0.67136497  0.35249895  0.23935899     0.06650
C19         C  0.31031582  0.11683208  0.23490347     0.03690
C20         C  0.30982423  0.06637022  0.21447816    -0.12460
C21         C  0.27497529  0.04745139  0.19111434     0.01190
C22         C  0.24045020  0.07976423  0.18894014    -0.10990
C23         C  0.24078976  0.13049860  0.20912307     0.03680
C24         C  0.27604932  0.14899655  0.23147296    -0.10410
H25         H  0.33619070  0.04139003  0.21828002     0.09270
H26         H  0.21330904  0.06573264  0.17119943     0.06800
H27         H  0.27627145  0.18754379  0.24855297     0.06650
C28         C  0.30567541  0.42379633  0.11933021     0.03690
C29         C  0.30687074  0.47389365  0.14092563    -0.12460
C30         C  0.27439669  0.49362727  0.17022809     0.01190
C31         C  0.24073852  0.46241520  0.17775892    -0.10990
C32         C  0.23977285  0.41198656  0.15723628     0.03680
C33         C  0.27244387  0.39270383  0.12887264    -0.10410
H34         H  0.33206046  0.49846053  0.13262717     0.09270
H35         H  0.21514610  0.47724180  0.19933814     0.06800
H36         H  0.27103418  0.35422645  0.11177681     0.06650
In37       In  0.47165134  0.27241397  0.42320226     1.36870
C38         C  0.43170937  0.20941901  0.35999672     0.78140
O39         O  0.48522130  0.34597378  0.37859572    -0.60310
O40         O  0.52743038  0.28278763  0.37832301    -0.51220
C41         C  0.42233215  0.33224257  0.48021422     0.70800
O42         O  0.41248571  0.31181317  0.43795092    -0.46080
C43         C  0.52051279  0.21832512  0.48592297     0.75510
O44         O  0.43380094  0.20235438  0.40828264    -0.57940
O45         O  0.53092055  0.25712140  0.45985925    -0.48030
O46         O  0.45210671  0.24671530  0.34389856    -0.54370
C47         C  0.51902481  0.32861167  0.36394430     0.85690
O48         O  0.45838874  0.32411603  0.49248216    -0.56260
O49         O  0.48415225  0.20693828  0.48082515    -0.59550
C50         C  0.80832657  0.17144348  0.12155745     0.03690
C51         C  0.77488898  0.14055648  0.13088180    -0.12460
C52         C  0.74187439  0.16042903  0.15839511     0.01190
C53         C  0.74294376  0.21116543  0.17821639    -0.10990
C54         C  0.77681963  0.24198626  0.17086991     0.03680
C55         C  0.80966812  0.22159368  0.14295593    -0.10410
H56         H  0.77351283  0.10204730  0.11387093     0.09270
H57         H  0.71706885  0.22685912  0.19864891     0.06800
H58         H  0.83511464  0.24588278  0.13509120     0.06650
C59         C  0.80806190  0.36643110  0.23754620     0.03690
C60         C  0.77460458  0.39879319  0.22743866    -0.12460
C61         C  0.74160657  0.38004390  0.20029345     0.01190
C62         C  0.74274018  0.32891205  0.18140835    -0.10990
C63         C  0.77667990  0.29657699  0.18933663     0.03680
C64         C  0.80950349  0.31581285  0.21707276    -0.10410
H65         H  0.77319552  0.43773820  0.24360447     0.09270
H66         H  0.71692760  0.31419723  0.16104487     0.06800
H67         H  0.83503984  0.29046637  0.22532984     0.06650
C68         C  0.13618101  0.36852007  0.12337689     0.03690
C69         C  0.16943190  0.40007815  0.13068645    -0.12460
C70         C  0.20276354  0.38178610  0.15852202     0.01190
C71         C  0.20242119  0.33189930  0.18054503    -0.10990
C72         C  0.16870784  0.30033931  0.17511795     0.03680
C73         C  0.13544958  0.31924137  0.14668798    -0.10410
H74         H  0.17036084  0.43783709  0.11192835     0.09270
H75         H  0.22861579  0.31761482  0.20134095     0.06800
H76         H  0.11006823  0.29449967  0.13999130     0.06650
C77         C  0.13481360  0.17578469  0.23916720     0.03690
C78         C  0.16892121  0.14368243  0.23326652    -0.12460
C79         C  0.20369145  0.16300541  0.21038603     0.01190
C80         C  0.20357451  0.21438837  0.19179887    -0.10990
C81         C  0.16910849  0.24654254  0.19615380     0.03680
C82         C  0.13494326  0.22698693  0.22054569    -0.10410
H83         H  0.16901446  0.10446701  0.24883860     0.09270
H84         H  0.23021439  0.22892270  0.17326100     0.06800
H85         H  0.10862362  0.25175859  0.22581098     0.06650
In86       In  0.97222085  0.01972992  0.42620993     1.36870
C87         C  0.01936863  0.45766731  0.48383107     0.78140
O88         O  0.95919641  0.06467587  0.49924110    -0.60310
O89         O  0.91885950  0.07281524  0.43601540    -0.51220
C90         C  0.01401965  0.08225028  0.36485974     0.70800
O91         O  0.01397111  0.08634691  0.41355482    -0.46080
C92         C  0.92485195  0.45661172  0.37321519     0.75510
O93         O  0.03111610  0.48060418  0.44369618    -0.57940
O94         O  0.91324877  0.48294452  0.41172334    -0.48030
O95         O  0.98269307  0.46437755  0.49325423    -0.54370
C96         C  0.92650952  0.08363471  0.48267693     0.85690
O97         O  0.99082659  0.04831675  0.34770139    -0.56260
O98         O  0.96163797  0.46023463  0.36343084    -0.59550
C99         C  0.04588439  0.09663201  0.27877666    -0.20750
C100        C  0.04093491  0.11188546  0.33081935    -0.08790
C101        C  0.06480896  0.15179376  0.35070972     0.30070
C102        C  0.09410593  0.17420515  0.31963503    -0.20750
C103        C  0.10034797  0.15680515  0.26871196    -0.08810
C104        C  0.07558842  0.11857744  0.24803687     0.30070
F105        F  0.08086711  0.10159466  0.19862225    -0.19330
H106        H  0.02794003  0.06601752  0.26248863     0.18440
H107        H  0.11310497  0.20370208  0.33597966     0.18440
F108        F  0.06087876  0.16793875  0.40059604    -0.19320
C109        C  0.08675158  0.41941555  0.00158709    -0.20750
C110        C  0.04712436  0.42802703  0.01791269    -0.08790
C111        C  0.03593981  0.41239110  0.06820481     0.30070
C112        C  0.06465551  0.39098650  0.10216583    -0.20750
C113        C  0.10468909  0.38528726  0.08643507    -0.08810
C114        C  0.11525559  0.39823083  0.03538265     0.30070
F115        F  0.15346318  0.39116440  0.01850201    -0.19330
H116        H  0.09604884  0.43052543  0.46295750     0.18440
H117        H  0.05604508  0.38087019  0.14134045     0.18440
F118        F  0.99789797  0.42007189  0.08541644    -0.19320
C119        C  0.85631554  0.42565280  0.35550255    -0.20750
C120        C  0.89673506  0.42691856  0.34091576    -0.08790
C121        C  0.90854504  0.40400038  0.29352675     0.30070
C122        C  0.87984485  0.38267680  0.26042582    -0.20750
C123        C  0.83915427  0.38424108  0.27403162    -0.08810
C124        C  0.82782881  0.40452820  0.32259806     0.30070
F125        F  0.78899627  0.40435542  0.33808536    -0.19330
H126        H  0.84643371  0.44243075  0.39195515     0.18440
H127        H  0.88915534  0.36672109  0.22337312     0.18440
F128        F  0.94739968  0.40403971  0.27820909    -0.19320
C129        C  0.85745016  0.11540519  0.00137876    -0.20750
C130        C  0.89786083  0.11240245  0.01612994    -0.08790
C131        C  0.90921199  0.13221023  0.06479197     0.30050
C132        C  0.88018690  0.15281958  0.09866903    -0.20750
C133        C  0.83953576  0.15312937  0.08478656    -0.08810
C134        C  0.82852497  0.13527239  0.03533335     0.30070
F135        F  0.78964518  0.13678973  0.01990873    -0.19330
H136        H  0.84792351  0.10045641  0.96417293     0.18440
H137        H  0.88925728  0.16700272  0.13636494     0.18440
F138        F  0.94813907  0.13087820  0.07993401    -0.19320
C139        C  0.40582635  0.38361993  0.06027654    -0.20750
C140        C  0.39340210  0.36092881  0.01344795    -0.08790
C141        C  0.35246942  0.36256372  0.00051748     0.30070
C142        C  0.32461119  0.38442962  0.03467317    -0.20750
C143        C  0.33670563  0.40517619  0.08239023    -0.08810
C144        C  0.37774334  0.40584576  0.09449131     0.30070
F145        F  0.39049027  0.42561507  0.14029139    -0.19330
H146        H  0.43716898  0.38289257  0.07107208     0.18440
H147        H  0.29321013  0.38440202  0.02412205     0.18440
F148        F  0.33896198  0.34139504  0.95571697    -0.19320
C149        C  0.37803025  0.14451798  0.34796979    -0.20750
C150        C  0.40519587  0.17920313  0.32587074    -0.08790
C151        C  0.40334828  0.18893492  0.27206486     0.30070
C152        C  0.37324722  0.16687093  0.24189505    -0.20750
C153        C  0.34504125  0.13446861  0.26479299    -0.08810
C154        C  0.34813868  0.12236491  0.31770993     0.30070
F155        F  0.32092506  0.09122297  0.34054827    -0.19330
H156        H  0.37871878  0.13639589  0.38919777     0.18440
H157        H  0.37115458  0.17631416  0.20100807     0.18440
F158        F  0.42954678  0.22131610  0.24895587    -0.19320
C159        C  0.61648910  0.37855347  0.31419930    -0.20750
C160        C  0.60478383  0.40479971  0.26863936    -0.08790
C161        C  0.56364989  0.41040953  0.25725209     0.30070
C162        C  0.53516956  0.38776801  0.28984904    -0.20750
C163        C  0.54753306  0.35877587  0.33339221    -0.08810
C164        C  0.58834274  0.35528112  0.34587397     0.30070
F165        F  0.60108206  0.32897974  0.38872526    -0.19330
H166        H  0.64780035  0.37513417  0.32488594     0.18440
H167        H  0.50372954  0.39065592  0.27973297     0.18440
F168        F  0.55113950  0.43514450  0.21344506    -0.19320
C169        C  0.61813431  0.16874615  0.04211023    -0.20750
C170        C  0.60580040  0.14277268  0.08712720    -0.08790
C171        C  0.56449505  0.13812847  0.09666758     0.30070
C172        C  0.53642441  0.16117933  0.06266972    -0.20750
C173        C  0.54922890  0.18946928  0.01925940    -0.08810
C174        C  0.59039797  0.19219457  0.00886152     0.30070
F175        F  0.60404491  0.21760116  0.96639776    -0.19330
H176        H  0.64963002  0.17139150  0.03273931     0.18440
H177        H  0.50480619  0.15857044  0.07128477     0.18440
F178        F  0.55130226  0.11348342  0.13977717    -0.19320
C179        C  0.63694757  0.12223327  0.62334464     0.03690
C180        C  0.63591357  0.07108758  0.64267252    -0.12460
C181        C  0.66903273  0.04958974  0.66959997     0.01190
C182        C  0.70328106  0.07985332  0.67683176    -0.10990
C183        C  0.70425022  0.13115282  0.65856990     0.03680
C184        C  0.67067893  0.15244110  0.63337883    -0.10410
H185        H  0.61050705  0.04698851  0.63411846     0.09270
H186        H  0.72942180  0.06350389  0.69625071     0.06800
H187        H  0.67194587  0.19181444  0.61839042     0.06650
C188        C  0.63640057  0.42382419  0.73334271     0.03690
C189        C  0.63551433  0.47494460  0.71383311    -0.12460
C190        C  0.66891170  0.49466461  0.68752972     0.01190
C191        C  0.70319450  0.46256969  0.68095444    -0.10990
C192        C  0.70399839  0.41127960  0.69940252     0.03680
C193        C  0.67023684  0.39185986  0.72414224    -0.10410
H194        H  0.60996256  0.50031116  0.72174869     0.09270
H195        H  0.72950200  0.47749236  0.66193473     0.06800
H196        H  0.67136443  0.35250310  0.73936372     0.06650
C197        C  0.31031528  0.11683508  0.73490085     0.03690
C198        C  0.30982342  0.06637337  0.71447515    -0.12460
C199        C  0.27497440  0.04745505  0.69111106     0.01190
C200        C  0.24044953  0.07976825  0.68893696    -0.10990
C201        C  0.24078933  0.13050245  0.70912028     0.03680
C202        C  0.27604895  0.14899992  0.73147043    -0.10410
H203        H  0.33618972  0.04139287  0.71827697     0.09270
H204        H  0.21330829  0.06573700  0.67119615     0.06800
H205        H  0.27627123  0.18754698  0.74855081     0.06650
C206        C  0.30567393  0.42379983  0.61932682     0.03690
C207        C  0.30686944  0.47389714  0.64092223    -0.12460
C208        C  0.27439545  0.49363101  0.67022462     0.01190
C209        C  0.24073712  0.46241920  0.67775541    -0.10990
C210        C  0.23977127  0.41199052  0.65723283     0.03680
C211        C  0.27244221  0.39270760  0.62886915    -0.10410
H212        H  0.33205932  0.49846379  0.63262391     0.09270
H213        H  0.21514480  0.47724595  0.69933471     0.06800
H214        H  0.27103243  0.35423018  0.61177343     0.06650
In215      In  0.47165162  0.27241267  0.92320233     1.36870
C216        C  0.43170957  0.20941858  0.85999577     0.78140
O217        O  0.48522053  0.34597389  0.87859744    -0.60310
O218        O  0.52743054  0.28278877  0.87832352    -0.51220
C219        C  0.42233278  0.33224048  0.98021552     0.70800
O220        O  0.41248598  0.31181123  0.93795229    -0.46080
C221        C  0.52051359  0.21832328  0.98592219     0.75510
O222        O  0.43380126  0.20235314  0.90828156    -0.57940
O223        O  0.53092168  0.25711785  0.95985621    -0.48030
O224        O  0.45210698  0.24671503  0.84389821    -0.54370
C225        C  0.51902433  0.32861295  0.86394581     0.85690
O226        O  0.45838954  0.32411417  0.99248280    -0.56260
O227        O  0.48415250  0.20693816  0.98082675    -0.59550
C228        C  0.80832476  0.17144820  0.62155661     0.03690
C229        C  0.77488730  0.14056095  0.63088075    -0.12460
C230        C  0.74187312  0.16043271  0.65839540     0.01190
C231        C  0.74294259  0.21116873  0.67821765    -0.10990
C232        C  0.77681832  0.24198984  0.67087110     0.03680
C233        C  0.80966653  0.22159790  0.64295612    -0.10410
H234        H  0.77351100  0.10205220  0.61386895     0.09270
H235        H  0.71706790  0.22686191  0.69865099     0.06800
H236        H  0.83511300  0.24588713  0.63509154     0.06650
C237        C  0.80806152  0.36643369  0.73754854     0.03690
C238        C  0.77460421  0.39879609  0.72744181    -0.12460
C239        C  0.74160583  0.38004722  0.70029702     0.01190
C240        C  0.74273904  0.32891551  0.68141152    -0.10990
C241        C  0.77667876  0.29658022  0.68933884     0.03680
C242        C  0.80950269  0.31581561  0.71707461    -0.10410
H243        H  0.77319549  0.43774103  0.74360780     0.09270
H244        H  0.71692623  0.31420104  0.66104829     0.06800
H245        H  0.83503906  0.29046892  0.72533093     0.06650
C246        C  0.13617902  0.36852353  0.62337571     0.03690
C247        C  0.16942997  0.40008174  0.63068434    -0.12460
C248        C  0.20276201  0.38178992  0.65851930     0.01190
C249        C  0.20242000  0.33190320  0.68054258    -0.10990
C250        C  0.16870664  0.30034306  0.67511638     0.03680
C251        C  0.13544799  0.31924492  0.64668704    -0.10410
H252        H  0.17035862  0.43784057  0.61192598     0.09270
H253        H  0.22861487  0.31761892  0.70133805     0.06800
H254        H  0.11006661  0.29450311  0.63999095     0.06650
C255        C  0.13481336  0.17578799  0.73916584     0.03690
C256        C  0.16892103  0.14368600  0.73326462    -0.12460
C257        C  0.20369104  0.16300927  0.71038386     0.01190
C258        C  0.20357383  0.21439232  0.69179693    -0.10990
C259        C  0.16910769  0.24654627  0.69615232     0.03680
C260        C  0.13494270  0.22699034  0.72054457    -0.10410
H261        H  0.16901451  0.10447048  0.74883647     0.09270
H262        H  0.23021353  0.22892683  0.67325879     0.06800
H263        H  0.10862298  0.25176178  0.72581023     0.06650
In264      In  0.97222423  0.01972829  0.92621030     1.36870
C265        C  0.01937201  0.45766548  0.98383131     0.78140
O266        O  0.95919988  0.06467410  0.99924175    -0.60310
O267        O  0.91886252  0.07281254  0.93601637    -0.51220
C268        C  0.01402214  0.08224932  0.86485960     0.70800
O269        O  0.01397273  0.08634717  0.91355458    -0.46080
C270        C  0.92485428  0.45661117  0.87321588     0.75510
O271        O  0.03111974  0.48060324  0.94369706    -0.57940
O272        O  0.91325167  0.48294437  0.91172400    -0.48030
O273        O  0.98269630  0.46437504  0.99325384    -0.54370
C274        C  0.92651257  0.08363203  0.98267787     0.85690
O275        O  0.99083060  0.04831386  0.84770158    -0.56260
O276        O  0.96164037  0.46023301  0.86343133    -0.59550
C277        C  0.04588588  0.09663254  0.77877612    -0.20750
C278        C  0.04093658  0.11188554  0.83081897    -0.08790
C279        C  0.06480991  0.15179472  0.85070910     0.30070
C280        C  0.09410608  0.17420735  0.81963402    -0.20750
C281        C  0.10034802  0.15680780  0.76871078    -0.08810
C282        C  0.07558908  0.11857927  0.74803593     0.30070
F283        F  0.08086768  0.10159685  0.69862117    -0.19330
H284        H  0.02794203  0.06601749  0.76248821     0.18440
H285        H  0.11310471  0.20370481  0.83597851     0.18440
F286        F  0.06087991  0.16793928  0.90059558    -0.19320
C287        C  0.08674820  0.41941711  0.50158611    -0.20750
C288        C  0.04712121  0.42802918  0.51791241    -0.08790
C289        C  0.03593724  0.41239428  0.56820507     0.30070
C290        C  0.06465330  0.39099012  0.60216587    -0.20750
C291        C  0.10468667  0.38529033  0.58643434    -0.08810
C292        C  0.11525257  0.39823288  0.53538145     0.30070
F293        F  0.15345993  0.39116595  0.51850013    -0.19330
H294        H  0.09605265  0.43052465  0.96295889     0.18440
H295        H  0.05604334  0.38087458  0.64134086     0.18440
F296        F  0.99789565  0.42007568  0.58541738    -0.19320
C297        C  0.85631718  0.42565445  0.85550402    -0.20750
C298        C  0.89673665  0.42691884  0.84091677    -0.08790
C299        C  0.90854586  0.40400022  0.79352767     0.30070
C300        C  0.87984500  0.38267753  0.76042713    -0.20750
C301        C  0.83915450  0.38424314  0.77403340    -0.08810
C302        C  0.82782979  0.40453073  0.82259992     0.30070
F303        F  0.78899736  0.40435916  0.83808780    -0.19330
H304        H  0.84643591  0.44243275  0.89195670     0.18440
H305        H  0.88915494  0.36672141  0.72337438     0.18440
F306        F  0.94740043  0.40403821  0.77820960    -0.19320
C307        C  0.85744790  0.11541224  0.50137664    -0.20750
C308        C  0.89785830  0.11240633  0.51612878    -0.08790
C309        C  0.90920954  0.13221205  0.56479166     0.30050
C310        C  0.88018474  0.15282205  0.59866869    -0.20750
C311        C  0.83953379  0.15313464  0.58478534    -0.08810
C312        C  0.82852297  0.13528014  0.53533126     0.30070
F313        F  0.78964334  0.13680026  0.51990602    -0.19330
H314        H  0.84792120  0.10046522  0.46417013     0.18440
H315        H  0.88925511  0.16700327  0.63636534     0.18440
F316        F  0.94813637  0.13087700  0.57993472    -0.19320
C317        C  0.40582519  0.38362249  0.56027473    -0.20750
C318        C  0.39340127  0.36093128  0.51344604    -0.08790
C319        C  0.35246870  0.36256641  0.50051496     0.30070
C320        C  0.32461024  0.38443261  0.53467018    -0.20750
C321        C  0.33670435  0.40517930  0.58238733    -0.08810
C322        C  0.37774197  0.40584863  0.59448901     0.30070
F323        F  0.39048858  0.42561800  0.64028921    -0.19330
H324        H  0.43716772  0.38289495  0.57107075     0.18440
H325        H  0.29320926  0.38440516  0.52411863     0.18440
F326        F  0.33896159  0.34139766  0.45571431    -0.19320
C327        C  0.37802957  0.14451889  0.84796797    -0.20750
C328        C  0.40519579  0.17920352  0.82586937    -0.08790
C329        C  0.40334851  0.18893580  0.77206355     0.30070
C330        C  0.37324724  0.16687273  0.74189336    -0.20750
C331        C  0.34504072  0.13447090  0.76479084    -0.08810
C332        C  0.34813777  0.12236677  0.81770773     0.30070
F333        F  0.32092363  0.09122530  0.84054565    -0.19330
H334        H  0.37871782  0.13639648  0.88919589     0.18440
H335        H  0.37115493  0.17631627  0.70100642     0.18440
F336        F  0.42954756  0.22131651  0.74895499    -0.19320
C337        C  0.61648816  0.37855853  0.81420347    -0.20750
C338        C  0.60478307  0.40480383  0.76864294    -0.08790
C339        C  0.56364921  0.41041226  0.75725462     0.30070
C340        C  0.53516885  0.38777000  0.78985101    -0.20750
C341        C  0.54753228  0.35877856  0.83339468    -0.08810
C342        C  0.58834180  0.35528548  0.84587761     0.30070
F343        F  0.60108098  0.32898479  0.88872939    -0.19330
H344        H  0.64779932  0.37514026  0.82489081     0.18440
H345        H  0.50372895  0.39065662  0.77973404     0.18440
F346        F  0.55113903  0.43514637  0.71344702    -0.19320
C347        C  0.61813331  0.16874734  0.54211058    -0.20750
C348        C  0.60579940  0.14277442  0.58712788    -0.08790
C349        C  0.56449406  0.13813048  0.59666846     0.30070
C350        C  0.53642343  0.16118125  0.56267053    -0.20750
C351        C  0.54922796  0.18947092  0.51926007    -0.08810
C352        C  0.59039698  0.19219577  0.50886189     0.30070
F353        F  0.60404383  0.21760193  0.46639781    -0.19330
H354        H  0.64962902  0.17139241  0.53273950     0.18440
H355        H  0.50480520  0.15857269  0.57128572     0.18440
F356        F  0.55130129  0.11348590  0.63977833    -0.19320
C357        C  0.63694816  0.62223101  0.12334394     0.03690
C358        C  0.63591385  0.57108508  0.14267115    -0.12460
C359        C  0.66903287  0.54958657  0.16959833     0.01190
C360        C  0.70328131  0.57984975  0.17683077    -0.10990
C361        C  0.70425087  0.63114943  0.15856951     0.03680
C362        C  0.67067974  0.65243836  0.13337851    -0.10410
H363        H  0.61050722  0.54698635  0.13411667     0.09270
H364        H  0.72942190  0.56349980  0.19624966     0.06800
H365        H  0.67194695  0.69181180  0.11839044     0.06650
C366        C  0.63640176  0.92382022  0.23333871     0.03690
C367        C  0.63551563  0.97494086  0.21382972    -0.12460
C368        C  0.66891297  0.99466103  0.18752643     0.01190
C369        C  0.70319571  0.96256611  0.18095075    -0.10990
C370        C  0.70399955  0.91127585  0.19939833     0.03680
C371        C  0.67023794  0.89185586  0.22413771    -0.10410
H372        H  0.60996400  0.00030751  0.22174577     0.09270
H373        H  0.72950326  0.97748897  0.16193131     0.06800
H374        H  0.67136548  0.85249893  0.23935874     0.06650
C375        C  0.31031538  0.61683192  0.23490369     0.03690
C376        C  0.30982362  0.56637004  0.21447845    -0.12460
C377        C  0.27497459  0.54745134  0.19111473     0.01190
C378        C  0.24044956  0.57976429  0.18894067    -0.10990
C379        C  0.24078929  0.63049868  0.20912354     0.03680
C380        C  0.27604895  0.64899651  0.23147327    -0.10410
H381        H  0.33619006  0.54138978  0.21828020     0.09270
H382        H  0.21330834  0.56573281  0.17120004     0.06800
H383        H  0.27627122  0.68754379  0.24855319     0.06650
C384        C  0.30567617  0.92379630  0.11932997     0.03690
C385        C  0.30687152  0.97389362  0.14092539    -0.12460
C386        C  0.27439747  0.99362726  0.17022784     0.01190
C387        C  0.24073933  0.96241518  0.17775876    -0.10990
C388        C  0.23977362  0.91198655  0.15723613     0.03680
C389        C  0.27244461  0.89270381  0.12887243    -0.10410
H390        H  0.33206123  0.99846051  0.13262690     0.09270
H391        H  0.21514692  0.97724180  0.19933799     0.06800
H392        H  0.27103488  0.85422645  0.11177655     0.06650
In393      In  0.47165158  0.77241387  0.42320142     1.36870
C394        C  0.43170944  0.70941893  0.35999597     0.78140
O395        O  0.48522176  0.84597391  0.37859538    -0.60310
O396        O  0.52743055  0.78278744  0.37832204    -0.51220
C397        C  0.42233261  0.83224270  0.48021344     0.70800
O398        O  0.41248599  0.81181304  0.43795034    -0.46080
C399        C  0.52051293  0.71832493  0.48592224     0.75510
O400        O  0.43380165  0.70235380  0.40828176    -0.57940
O401        O  0.53092116  0.75711987  0.45985687    -0.48030
O402        O  0.45210623  0.74671574  0.34389783    -0.54370
C403        C  0.51902516  0.82861165  0.36394369     0.85690
O404        O  0.45838929  0.82411633  0.49248112    -0.56260
O405        O  0.48415200  0.70693942  0.48082590    -0.59550
C406        C  0.80832639  0.67144268  0.12155813     0.03690
C407        C  0.77488865  0.64055593  0.13088241    -0.12460
C408        C  0.74187406  0.66042878  0.15839554     0.01190
C409        C  0.74294360  0.71116520  0.17821672    -0.10990
C410        C  0.77681964  0.74198576  0.17087033     0.03680
C411        C  0.80966811  0.72159289  0.14295653    -0.10410
H412        H  0.77351239  0.60204673  0.11387162     0.09270
H413        H  0.71706870  0.72685912  0.19864909     0.06800
H414        H  0.83511474  0.74588180  0.13509184     0.06650
C415        C  0.80806227  0.86643056  0.23754642     0.03690
C416        C  0.77460511  0.89879286  0.22743863    -0.12460
C417        C  0.74160710  0.88004371  0.20029333     0.01190
C418        C  0.74274056  0.82891182  0.18140835    -0.10990
C419        C  0.77668011  0.79657653  0.18933690     0.03680
C420        C  0.80950371  0.81581224  0.21707313    -0.10410
H421        H  0.77319615  0.93773789  0.24360437     0.09270
H422        H  0.71692797  0.81419712  0.16104480     0.06800
H423        H  0.83503992  0.79046560  0.22533042     0.06650
C424        C  0.13618156  0.86852066  0.12337699     0.03690
C425        C  0.16943262  0.90007847  0.13068633    -0.12460
C426        C  0.20276424  0.88178623  0.15852186     0.01190
C427        C  0.20242168  0.83189951  0.18054504    -0.10990
C428        C  0.16870812  0.80033981  0.17511820     0.03680
C429        C  0.13544992  0.81924206  0.14668827    -0.10410
H430        H  0.17036170  0.93783736  0.11192817     0.09270
H431        H  0.22861623  0.81761490  0.20134095     0.06800
H432        H  0.11006842  0.79450057  0.13999175     0.06650
C433        C  0.13481334  0.67578557  0.23916773     0.03690
C434        C  0.16892081  0.64368305  0.23326706    -0.12460
C435        C  0.20369111  0.66300573  0.21038649     0.01190
C436        C  0.20357439  0.71438865  0.19179926    -0.10990
C437        C  0.16910852  0.74654309  0.19615420     0.03680
C438        C  0.13494321  0.72698778  0.22054616    -0.10410
H439        H  0.16901389  0.60446764  0.24883917     0.09270
H440        H  0.23021432  0.72892274  0.17326131     0.06800
H441        H  0.10862367  0.75175964  0.22581144     0.06650
In442      In  0.97222073  0.51972996  0.42620990     1.36870
C443        C  0.01936893  0.95766774  0.48383133     0.78140
O444        O  0.95919637  0.56467562  0.49924127    -0.60310
O445        O  0.91885928  0.57281499  0.43601576    -0.51220
C446        C  0.01401948  0.58225080  0.36486010     0.70800
O447        O  0.01397114  0.58634689  0.41355522    -0.46080
C448        C  0.92485213  0.95661133  0.37321553     0.75510
O449        O  0.03111634  0.98060465  0.44369644    -0.57940
O450        O  0.91324891  0.98294428  0.41172356    -0.48030
O451        O  0.98269332  0.96437772  0.49325441    -0.54370
C452        C  0.92650937  0.58363431  0.48267730     0.85690
O453        O  0.99082628  0.54831753  0.34770155    -0.56260
O454        O  0.96163815  0.96023427  0.36343117    -0.59550
C455        C  0.04588368  0.59663358  0.27877685    -0.20750
C456        C  0.04093466  0.61188627  0.33081983    -0.08790
C457        C  0.06480909  0.65179403  0.35071052     0.30070
C458        C  0.09410602  0.67420554  0.31963586    -0.20750
C459        C  0.10034763  0.65680623  0.26871247    -0.08810
C460        C  0.07558765  0.61857915  0.24803706     0.30070
F461        F  0.08086593  0.60159703  0.19862215    -0.19330
H462        H  0.02793901  0.56601955  0.26248855     0.18440
H463        H  0.11310540  0.70370197  0.33598073     0.18440
F464        F  0.06087932  0.66793831  0.40059713    -0.19320
C465        C  0.08675201  0.91941636  0.00158734    -0.20750
C466        C  0.04712477  0.92802766  0.01791297    -0.08790
C467        C  0.03594028  0.91239166  0.06820509     0.30070
C468        C  0.06465604  0.89098712  0.10216606    -0.20750
C469        C  0.10468962  0.88528800  0.08643526    -0.08810
C470        C  0.11525607  0.89823169  0.03538285     0.30070
F471        F  0.15346365  0.89116535  0.01850213    -0.19330
H472        H  0.09604918  0.93052621  0.46295773     0.18440
H473        H  0.05604564  0.88087072  0.14134067     0.18440
F474        F  0.99789843  0.92007231  0.08541675    -0.19320
C475        C  0.85631576  0.92565231  0.35550285    -0.20750
C476        C  0.89673530  0.92691800  0.34091617    -0.08790
C477        C  0.90854535  0.90399964  0.29352727     0.30070
C478        C  0.87984521  0.88267601  0.26042631    -0.20750
C479        C  0.83915460  0.88424042  0.27403196    -0.08810
C480        C  0.82782907  0.90452765  0.32259832     0.30070
F481        F  0.78899649  0.90435500  0.33808548    -0.19330
H482        H  0.84643386  0.94243038  0.39195536     0.18440
H483        H  0.88915575  0.86672021  0.22337367     0.18440
F484        F  0.94740003  0.90403887  0.27820973    -0.19320
C485        C  0.85744994  0.61540435  0.00137942    -0.20750
C486        C  0.89786064  0.61240176  0.01613051    -0.08790
C487        C  0.90921180  0.63220944  0.06479258     0.30050
C488        C  0.88018671  0.65281863  0.09866972    -0.20750
C489        C  0.83953556  0.65312838  0.08478730    -0.08810
C490        C  0.82852475  0.63527139  0.03533410     0.30070
F491        F  0.78964495  0.63678867  0.01990950    -0.19330
H492        H  0.84792328  0.60045562  0.96417358     0.18440
H493        H  0.88925711  0.66700177  0.13636562     0.18440
F494        F  0.94813890  0.63087749  0.07993456    -0.19320
C495        C  0.40582700  0.88361989  0.06027597    -0.20750
C496        C  0.39340267  0.86092900  0.01344731    -0.08790
C497        C  0.35246997  0.86256409  0.00051690     0.30070
C498        C  0.32461181  0.88442990  0.03467274    -0.20750
C499        C  0.33670632  0.90517621  0.08238987    -0.08810
C500        C  0.37774405  0.90584565  0.09449089     0.30070
F501        F  0.39049105  0.92561473  0.14029103    -0.19330
H502        H  0.43716963  0.88289239  0.07107147     0.18440
H503        H  0.29321073  0.88440243  0.02412168     0.18440
F504        F  0.33896246  0.84139570  0.95571629    -0.19320
C505        C  0.37803046  0.64451767  0.34796940    -0.20750
C506        C  0.40519584  0.67920301  0.32587017    -0.08790
C507        C  0.40334790  0.68893497  0.27206434     0.30070
C508        C  0.37324671  0.66687094  0.24189478    -0.20750
C509        C  0.34504097  0.63446843  0.26479290    -0.08810
C510        C  0.34813875  0.62236457  0.31770977     0.30070
F511        F  0.32092532  0.59122248  0.34054831    -0.19330
H512        H  0.37871925  0.63639546  0.38919735     0.18440
H513        H  0.37115380  0.67631431  0.20100785     0.18440
F514        F  0.42954619  0.72131631  0.24895518    -0.19320
C515        C  0.61648958  0.87855322  0.31419889    -0.20750
C516        C  0.60478437  0.90479974  0.26863908    -0.08790
C517        C  0.56365043  0.91040982  0.25725186     0.30070
C518        C  0.53517005  0.88776828  0.28984872    -0.20750
C519        C  0.54753349  0.85877585  0.33339173    -0.08810
C520        C  0.58834316  0.85528083  0.34587344     0.30070
F521        F  0.60108243  0.82897912  0.38872457    -0.19330
H522        H  0.64780082  0.87513372  0.32488552     0.18440
H523        H  0.50373003  0.89065640  0.27973269     0.18440
F524        F  0.55114009  0.93514504  0.21344496    -0.19320
C525        C  0.61813422  0.66874559  0.04211003    -0.20750
C526        C  0.60580014  0.64277276  0.08712729    -0.08790
C527        C  0.56449476  0.63812909  0.09666774     0.30070
C528        C  0.53642426  0.66117989  0.06266965    -0.20750
C529        C  0.54922891  0.68946918  0.01925897    -0.08810
C530        C  0.59039801  0.69219387  0.00886104     0.30070
F531        F  0.60404515  0.71759980  0.96639698    -0.19330
H532        H  0.64962996  0.67139053  0.03273913     0.18440
H533        H  0.50480602  0.65857144  0.07128477     0.18440
F534        F  0.55130184  0.61348461  0.13977758    -0.19320
C535        C  0.63694716  0.62223340  0.62334491     0.03690
C536        C  0.63591302  0.57108775  0.64267290    -0.12460
C537        C  0.66903211  0.54958983  0.66960040     0.01190
C538        C  0.70328048  0.57985332  0.67683226    -0.10990
C539        C  0.70424980  0.63115277  0.65857030     0.03680
C540        C  0.67067860  0.65244112  0.63337907    -0.10410
H541        H  0.61050645  0.54698877  0.63411881     0.09270
H542        H  0.72942117  0.56350382  0.69625129     0.06800
H543        H  0.67194566  0.69181438  0.61839048     0.06650
C544        C  0.63640116  0.92382421  0.73334248     0.03690
C545        C  0.63551497  0.97494461  0.71383285    -0.12460
C546        C  0.66891236  0.99466456  0.68752943     0.01190
C547        C  0.70319515  0.96256962  0.68095423    -0.10990
C548        C  0.70399899  0.91127953  0.69940233     0.03680
C549        C  0.67023741  0.89185984  0.72414201    -0.10410
H550        H  0.60996322  0.00031120  0.72174840     0.09270
H551        H  0.72950268  0.97749225  0.66193453     0.06800
H552        H  0.67136495  0.85250306  0.73936345     0.06650
C553        C  0.31031483  0.61683493  0.73490108     0.03690
C554        C  0.30982281  0.56637321  0.71447545    -0.12460
C555        C  0.27497371  0.54745500  0.69111147     0.01190
C556        C  0.24044889  0.57976831  0.68893749    -0.10990
C557        C  0.24078886  0.63050254  0.70912076     0.03680
C558        C  0.27604858  0.64899989  0.73147075    -0.10410
H559        H  0.33618908  0.54139263  0.71827717     0.09270
H560        H  0.21330759  0.56573717  0.67119677     0.06800
H561        H  0.27627100  0.68754699  0.74855104     0.06650
C562        C  0.30567467  0.92379980  0.61932656     0.03690
C563        C  0.30687021  0.97389711  0.64092197    -0.12460
C564        C  0.27439623  0.99363100  0.67022435     0.01190
C565        C  0.24073792  0.96241918  0.67775523    -0.10990
C566        C  0.23977202  0.91199051  0.65723265     0.03680
C567        C  0.27244294  0.89270757  0.62886891    -0.10410
H568        H  0.33206008  0.99846377  0.63262361     0.09270
H569        H  0.21514561  0.97724594  0.69933454     0.06800
H570        H  0.27103312  0.85423017  0.61177315     0.06650
In571      In  0.47165186  0.77241258  0.92320151     1.36870
C572        C  0.43170964  0.70941852  0.85999504     0.78140
O573        O  0.48522100  0.84597402  0.87859711    -0.60310
O574        O  0.52743072  0.78278857  0.87832254    -0.51220
C575        C  0.42233325  0.83224062  0.98021476     0.70800
O576        O  0.41248627  0.81181112  0.93795172    -0.46080
C577        C  0.52051373  0.71832310  0.98592147     0.75510
O578        O  0.43380197  0.70235259  0.90828070    -0.57940
O579        O  0.53092230  0.75711635  0.95985387    -0.48030
O580        O  0.45210651  0.74671549  0.84389749    -0.54370
C581        C  0.51902469  0.82861292  0.86394520     0.85690
O582        O  0.45839009  0.82411447  0.99248179    -0.56260
O583        O  0.48415226  0.70693929  0.98082747    -0.59550
C584        C  0.80832459  0.67144738  0.62155728     0.03690
C585        C  0.77488698  0.64056039  0.63088136    -0.12460
C586        C  0.74187280  0.66043245  0.65839582     0.01190
C587        C  0.74294243  0.71116851  0.67821796    -0.10990
C588        C  0.77681833  0.74198933  0.67087151     0.03680
C589        C  0.80966652  0.72159710  0.64295672    -0.10410
H590        H  0.77351055  0.60205161  0.61386964     0.09270
H591        H  0.71706776  0.72686192  0.69865116     0.06800
H592        H  0.83511311  0.74588614  0.63509217     0.06650
C593        C  0.80806191  0.86643314  0.73754874     0.03690
C594        C  0.77460475  0.89879575  0.72744177    -0.12460
C595        C  0.74160637  0.88004704  0.70029688     0.01190
C596        C  0.74273943  0.82891528  0.68141150    -0.10990
C597        C  0.77667898  0.79657976  0.68933910     0.03680
C598        C  0.80950292  0.81581500  0.71707497    -0.10410
H599        H  0.77319613  0.93774072  0.74360769     0.09270
H600        H  0.71692661  0.81420093  0.66104820     0.06800
H601        H  0.83503916  0.79046814  0.72533149     0.06650
C602        C  0.13617955  0.86852411  0.62337580     0.03690
C603        C  0.16943068  0.90008205  0.63068421    -0.12460
C604        C  0.20276269  0.88179004  0.65851912     0.01190
C605        C  0.20242047  0.83190341  0.68054257    -0.10990
C606        C  0.16870692  0.80034355  0.67511661     0.03680
C607        C  0.13544831  0.81924560  0.64668732    -0.10410
H608        H  0.17035947  0.93784083  0.61192578     0.09270
H609        H  0.22861531  0.81761899  0.70133803     0.06800
H610        H  0.11006679  0.79450400  0.63999142     0.06650
C611        C  0.13481309  0.67578886  0.73916638     0.03690
C612        C  0.16892063  0.64368662  0.73326517    -0.12460
C613        C  0.20369070  0.66300959  0.71038432     0.01190
C614        C  0.20357370  0.71439260  0.69179731    -0.10990
C615        C  0.16910772  0.74654682  0.69615271     0.03680
C616        C  0.13494265  0.72699119  0.72054504    -0.10410
H617        H  0.16901394  0.60447112  0.74883706     0.09270
H618        H  0.23021345  0.72892686  0.67325909     0.06800
H619        H  0.10862303  0.75176283  0.72581070     0.06650
In620      In  0.97222410  0.51972835  0.92621028     1.36870
C621        C  0.01937232  0.95766591  0.98383156     0.78140
O622        O  0.95919984  0.56467389  0.99924192    -0.60310
O623        O  0.91886229  0.57281230  0.93601674    -0.51220
C624        C  0.01402197  0.58224985  0.86485998     0.70800
O625        O  0.01397279  0.58634714  0.91355500    -0.46080
C626        C  0.92485447  0.95661077  0.87321620     0.75510
O627        O  0.03112001  0.98060375  0.94369734    -0.57940
O628        O  0.91325182  0.98294413  0.91172420    -0.48030
O629        O  0.98269657  0.96437516  0.99325399    -0.54370
C630        C  0.92651241  0.58363166  0.98267824     0.85690
O631        O  0.99083027  0.54831469  0.84770175    -0.56260
O632        O  0.96164055  0.96023263  0.86343166    -0.59550
C633        C  0.04588515  0.59663415  0.77877631    -0.20750
C634        C  0.04093633  0.61188636  0.83081947    -0.08790
C635        C  0.06481007  0.65179497  0.85070993     0.30070
C636        C  0.09410620  0.67420772  0.81963488    -0.20750
C637        C  0.10034768  0.65680887  0.76871130    -0.08810
C638        C  0.07558830  0.61858101  0.74803613     0.30070
F639        F  0.08086646  0.60159928  0.69862106    -0.19330
H640        H  0.02794097  0.56601957  0.76248814     0.18440
H641        H  0.11310518  0.70370465  0.83597962     0.18440
F642        F  0.06088052  0.66793879  0.90059671    -0.19320
C643        C  0.08674860  0.91941787  0.50158635    -0.20750
C644        C  0.04712160  0.92802980  0.51791270    -0.08790
C645        C  0.03593770  0.91239489  0.56820538     0.30070
C646        C  0.06465382  0.89099077  0.60216613    -0.20750
C647        C  0.10468718  0.88529106  0.58643453    -0.08810
C648        C  0.11525301  0.89823369  0.53538164     0.30070
F649        F  0.15346036  0.89116682  0.51850023    -0.19330
H650        H  0.09605303  0.93052550  0.96295914     0.18440
H651        H  0.05604389  0.88087518  0.64134112     0.18440
F652        F  0.99789611  0.92007618  0.58541773    -0.19320
C653        C  0.85631740  0.92565395  0.85550430    -0.20750
C654        C  0.89673690  0.92691827  0.84091717    -0.08790
C655        C  0.90854618  0.90399947  0.79352818     0.30070
C656        C  0.87984537  0.88267673  0.76042760    -0.20750
C657        C  0.83915484  0.88424248  0.77403372    -0.08810
C658        C  0.82783005  0.90453018  0.82260017     0.30070
F659        F  0.78899759  0.90435873  0.83808790    -0.19330
H660        H  0.84643607  0.94243238  0.89195690     0.18440
H661        H  0.88915537  0.86672051  0.72337492     0.18440
F662        F  0.94740079  0.90403735  0.77821024    -0.19320
C663        C  0.85744769  0.61541137  0.50137731    -0.20750
C664        C  0.89785811  0.61240562  0.51612936    -0.08790
C665        C  0.90920935  0.63221123  0.56479227     0.30050
C666        C  0.88018455  0.65282108  0.59866938    -0.20750
C667        C  0.83953359  0.65313362  0.58478607    -0.08810
C668        C  0.82852275  0.63527912  0.53533200     0.30070
F669        F  0.78964311  0.63679918  0.51990679    -0.19330
H670        H  0.84792098  0.60046440  0.46417078     0.18440
H671        H  0.88925494  0.66700230  0.63636603     0.18440
F672        F  0.94813620  0.63087627  0.57993527    -0.19320
C673        C  0.40582583  0.88362244  0.56027414    -0.20750
C674        C  0.39340183  0.86093146  0.51344538    -0.08790
C675        C  0.35246924  0.86256678  0.50051436     0.30070
C676        C  0.32461085  0.88443288  0.53466972    -0.20750
C677        C  0.33670503  0.90517931  0.58238695    -0.08810
C678        C  0.37774267  0.90584851  0.59448856     0.30070
F679        F  0.39048935  0.92561765  0.64028883    -0.19330
H680        H  0.43716836  0.88289476  0.57107012     0.18440
H681        H  0.29320986  0.88440557  0.52411822     0.18440
F682        F  0.33896206  0.84139832  0.45571361    -0.19320
C683        C  0.37802977  0.64451860  0.84796759    -0.20750
C684        C  0.40519576  0.67920343  0.82586881    -0.08790
C685        C  0.40334813  0.68893587  0.77206304     0.30070
C686        C  0.37324674  0.66687276  0.74189310    -0.20750
C687        C  0.34504044  0.63447074  0.76479077    -0.08810
C688        C  0.34813784  0.62236646  0.81770759     0.30070
F689        F  0.32092389  0.59122484  0.84054571    -0.19330
H690        H  0.37871828  0.63639609  0.88919548     0.18440
H691        H  0.37115414  0.67631643  0.70100621     0.18440
F692        F  0.42954697  0.72131674  0.74895431    -0.19320
C693        C  0.61648866  0.87855825  0.81420305    -0.20750
C694        C  0.60478362  0.90480385  0.76864266    -0.08790
C695        C  0.56364977  0.91041255  0.75725440     0.30070
C696        C  0.53516935  0.88777027  0.78985070    -0.20750
C697        C  0.54753272  0.85877853  0.83339420    -0.08810
C698        C  0.58834224  0.85528516  0.84587707     0.30070
F699        F  0.60108136  0.82898413  0.88872867    -0.19330
H700        H  0.64779981  0.87513977  0.82489037     0.18440
H701        H  0.50372945  0.89065711  0.77973378     0.18440
F702        F  0.55113963  0.93514693  0.71344694    -0.19320
C703        C  0.61813322  0.66874678  0.54211038    -0.20750
C704        C  0.60579914  0.64277450  0.58712796    -0.08790
C705        C  0.56449377  0.63813111  0.59666862     0.30070
C706        C  0.53642327  0.66118182  0.56267047    -0.20750
C707        C  0.54922797  0.68947081  0.51925964    -0.08810
C708        C  0.59039702  0.69219506  0.50886139     0.30070
F709        F  0.60404407  0.71760054  0.46639702    -0.19330
H710        H  0.64962895  0.67139143  0.53273931     0.18440
H711        H  0.50480503  0.65857370  0.57128573     0.18440
F712        F  0.55130086  0.61348711  0.63977875    -0.19320
loop_ 
_geom_bond_atom_site_label_1 
_geom_bond_atom_site_label_2 
_geom_bond_distance 
_geom_bond_site_symmetry_2 
_ccdc_geom_bond_type 
C1            C2   1.406       .  A
C1            C6   1.405       .  A
C1          C170   1.486       .  S
C2            C3   1.409       .  A
C2            H7   1.083       .  S
C3            C4   1.409       .  A
C3          C368   1.485   1_545  S
C4            C5   1.400       .  A
C4            H8   1.084       .  S
C5            C6   1.397       .  A
C5           C52   1.478       .  S
C6            H9   1.084       .  S
C10          C11   1.406       .  A
C10          C15   1.405       .  A
C10         C160   1.485       .  S
C11          C12   1.409       .  A
C11          H16   1.083       .  S
C12          C13   1.408       .  A
C12         C359   1.485       .  S
C13          C14   1.400       .  A
C13          H17   1.084       .  S
C14          C15   1.397       .  A
C14          C61   1.478       .  S
C15          H18   1.084       .  S
C19          C20   1.400       .  A
C19          C24   1.401       .  A
C19         C153   1.471       .  S
C20          C21   1.406       .  A
C20          H25   1.084       .  S
C21          C22   1.409       .  A
C21         C386   1.485   1_545  S
C22          C23   1.404       .  A
C22          H26   1.084       .  S
C23          C24   1.403       .  A
C23          C79   1.481       .  S
C24          H27   1.084       .  S
C28          C29   1.404       .  A
C28          C33   1.403       .  A
C28         C143   1.481       .  S
C29          C30   1.409       .  A
C29          H34   1.083       .  S
C30          C31   1.408       .  A
C30         C377   1.485       .  S
C31          C32   1.401       .  A
C31          H35   1.084       .  S
C32          C33   1.397       .  A
C32          C70   1.473       .  S
C33          H36   1.085       .  S
In37         O39   2.265       .  S
In37         O40   2.215       .  S
In37         O48   2.265       .  S
In37         O42   2.236       .  S
In37         O44   2.254       .  S
In37         O45   2.221       .  S
In37         O46   2.249       .  S
In37         O49   2.275       .  S
C38         C150   1.479       .  S
C38          O44   1.259       .  A
C38          O46   1.257       .  A
O39          C47   1.264       .  A
O40          C47   1.260       .  A
C41         C318   1.478       .  S
C41          O48   1.259       .  A
C41          O42   1.256       .  A
C43         C351   1.476       .  S
C43          O45   1.257       .  A
C43          O49   1.262       .  A
C47         C163   1.469       .  S
C50          C51   1.404       .  A
C50          C55   1.403       .  A
C50         C133   1.480       .  S
C51          C52   1.400       .  A
C51          H56   1.084       .  S
C52          C53   1.402       .  A
C53          C54   1.407       .  A
C53          H57   1.084       .  S
C54          C55   1.406       .  A
C54          C63   1.481       .  S
C55          H58   1.084       .  S
C59          C60   1.404       .  A
C59          C64   1.404       .  A
C59         C123   1.480       .  S
C60          C61   1.399       .  A
C60          H65   1.084       .  S
C61          C62   1.401       .  A
C62          C63   1.407       .  A
C62          H66   1.084       .  S
C63          C64   1.407       .  A
C64          H67   1.084       .  S
C68          C69   1.401       .  A
C68          C73   1.402       .  A
C68         C113   1.476       .  S
C69          C70   1.398       .  A
C69          H74   1.085       .  S
C70          C71   1.402       .  A
C71          C72   1.408       .  A
C71          H75   1.084       .  S
C72          C73   1.409       .  A
C72          C81   1.484       .  S
C73          H76   1.084       .  S
C77          C78   1.402       .  A
C77          C82   1.400       .  A
C77         C103   1.472       .  S
C78          C79   1.403       .  A
C78          H83   1.084       .  S
C79          C80   1.404       .  A
C80          C81   1.408       .  A
C80          H84   1.084       .  S
C81          C82   1.405       .  A
C82          H85   1.084       .  S
In86         O88   2.248       .  S
In86         O89   2.238       .  S
In86         O97   2.245       .  S
In86         O91   2.253   1_655  S
In86        O449   2.237   1_645  S
In86        O450   2.234   1_545  S
In86        O451   2.260   1_545  S
In86        O454   2.259   1_545  S
C87         C288   1.477       .  S
C87          O93   1.257       .  A
C87          O95   1.258   1_455  A
O88          C96   1.261       .  A
O89          C96   1.262       .  A
C90         C100   1.479       .  S
C90          O97   1.258   1_455  A
C90          O91   1.260       .  A
C92         C120   1.478       .  S
C92          O94   1.259       .  A
C92          O98   1.260       .  A
O93        In442   2.237   1_455  S
O94        In442   2.234       .  S
O95        In442   2.260       .  S
C96         C308   1.477       .  S
O98        In442   2.259       .  S
C99         C100   1.407       .  A
C99         C104   1.398       .  A
C99         H106   1.083       .  S
C100        C101   1.408       .  A
C101        C102   1.398       .  A
C101        F108   1.357       .  S
C102        C103   1.401       .  A
C102        H107   1.084       .  S
C103        C104   1.402       .  A
C104        F105   1.357       .  S
C109        C110   1.403       .  A
C109        C114   1.393       .  A
C109        H294   1.083   1_554  S
C110        C111   1.410       .  A
C110        C265   1.477   1_554  S
C111        C112   1.402       .  A
C111        F118   1.357   1_455  S
C112        C113   1.403       .  A
C112        H117   1.083       .  S
C113        C114   1.404       .  A
C114        F115   1.358       .  S
H116        C287   1.083       .  S
C119        C120   1.403       .  A
C119        C124   1.393       .  A
C119        H126   1.083       .  S
C120        C121   1.410       .  A
C121        C122   1.403       .  A
C121        F128   1.357       .  S
C122        C123   1.404       .  A
C122        H127   1.083       .  S
C123        C124   1.406       .  A
C124        F125   1.358       .  S
C129        C130   1.403       .  A
C129        C134   1.394       .  A
C129        H136   1.083   1_554  S
C130        C131   1.409       .  A
C130        C274   1.477   1_554  S
C131        C132   1.402       .  A
C131        F138   1.357       .  S
C132        C133   1.404       .  A
C132        H137   1.083       .  S
C133        C134   1.406       .  A
C134        F135   1.358       .  S
C139        C140   1.407       .  A
C139        C144   1.402       .  A
C139        H146   1.083       .  S
C140        C141   1.407       .  A
C140        C219   1.478   1_554  S
C141        C142   1.392       .  A
C141        F148   1.358   1_554  S
C142        C143   1.403       .  A
C142        H147   1.084       .  S
C143        C144   1.406       .  A
C144        F145   1.357       .  S
C149        C150   1.405       .  A
C149        C154   1.397       .  A
C149        H156   1.083       .  S
C150        C151   1.410       .  A
C151        C152   1.400       .  A
C151        F158   1.357       .  S
C152        C153   1.401       .  A
C152        H157   1.083       .  S
C153        C154   1.402       .  A
C154        F155   1.358       .  S
C159        C160   1.405       .  A
C159        C164   1.390       .  A
C159        H166   1.083       .  S
C160        C161   1.410       .  A
C161        C162   1.405       .  A
C161        F168   1.357       .  S
C162        C163   1.404       .  A
C162        H167   1.083       .  S
C163        C164   1.402       .  A
C164        F165   1.358       .  S
C169        C170   1.404       .  A
C169        C174   1.390       .  A
C169        H176   1.083       .  S
C170        C171   1.410       .  A
C171        C172   1.405       .  A
C171        F178   1.357       .  S
C172        C173   1.406       .  A
C172        H177   1.083       .  S
C173        C174   1.405       .  A
C173        C221   1.476   1_554  S
C174        F175   1.358   1_554  S
C179        C180   1.406       .  A
C179        C184   1.405       .  A
C179        C348   1.486       .  S
C180        C181   1.409       .  A
C180        H185   1.083       .  S
C181        C182   1.409       .  A
C181        C546   1.485   1_545  S
C182        C183   1.400       .  A
C182        H186   1.084       .  S
C183        C184   1.397       .  A
C183        C230   1.478       .  S
C184        H187   1.084       .  S
C188        C189   1.406       .  A
C188        C193   1.405       .  A
C188        C338   1.485       .  S
C189        C190   1.409       .  A
C189        H194   1.083       .  S
C190        C191   1.408       .  A
C190        C537   1.485       .  S
C191        C192   1.400       .  A
C191        H195   1.084       .  S
C192        C193   1.397       .  A
C192        C239   1.478       .  S
C193        H196   1.084       .  S
C197        C198   1.400       .  A
C197        C202   1.401       .  A
C197        C331   1.471       .  S
C198        C199   1.406       .  A
C198        H203   1.084       .  S
C199        C200   1.409       .  A
C199        C564   1.485   1_545  S
C200        C201   1.404       .  A
C200        H204   1.084       .  S
C201        C202   1.403       .  A
C201        C257   1.481       .  S
C202        H205   1.084       .  S
C206        C207   1.404       .  A
C206        C211   1.403       .  A
C206        C321   1.481       .  S
C207        C208   1.409       .  A
C207        H212   1.083       .  S
C208        C209   1.408       .  A
C208        C555   1.485       .  S
C209        C210   1.401       .  A
C209        H213   1.084       .  S
C210        C211   1.397       .  A
C210        C248   1.473       .  S
C211        H214   1.085       .  S
In215       O217   2.265       .  S
In215       O218   2.215       .  S
In215       O226   2.265       .  S
In215       O220   2.236       .  S
In215       O222   2.254       .  S
In215       O223   2.221       .  S
In215       O224   2.249       .  S
In215       O227   2.275       .  S
C216        C328   1.479       .  S
C216        O222   1.259       .  A
C216        O224   1.257       .  A
O217        C225   1.264       .  A
O218        C225   1.260       .  A
C219        O226   1.259       .  A
C219        O220   1.256       .  A
C221        O223   1.257       .  A
C221        O227   1.262       .  A
C225        C341   1.469       .  S
C228        C229   1.404       .  A
C228        C233   1.403       .  A
C228        C311   1.480       .  S
C229        C230   1.400       .  A
C229        H234   1.084       .  S
C230        C231   1.402       .  A
C231        C232   1.407       .  A
C231        H235   1.084       .  S
C232        C233   1.406       .  A
C232        C241   1.481       .  S
C233        H236   1.084       .  S
C237        C238   1.404       .  A
C237        C242   1.404       .  A
C237        C301   1.480       .  S
C238        C239   1.399       .  A
C238        H243   1.084       .  S
C239        C240   1.401       .  A
C240        C241   1.407       .  A
C240        H244   1.084       .  S
C241        C242   1.407       .  A
C242        H245   1.084       .  S
C246        C247   1.401       .  A
C246        C251   1.402       .  A
C246        C291   1.476       .  S
C247        C248   1.398       .  A
C247        H252   1.085       .  S
C248        C249   1.402       .  A
C249        C250   1.408       .  A
C249        H253   1.084       .  S
C250        C251   1.409       .  A
C250        C259   1.484       .  S
C251        H254   1.084       .  S
C255        C256   1.402       .  A
C255        C260   1.400       .  A
C255        C281   1.472       .  S
C256        C257   1.403       .  A
C256        H261   1.084       .  S
C257        C258   1.404       .  A
C258        C259   1.408       .  A
C258        H262   1.084       .  S
C259        C260   1.405       .  A
C260        H263   1.084       .  S
In264       O266   2.248       .  S
In264       O267   2.238       .  S
In264       O275   2.245       .  S
In264       O269   2.253   1_655  S
In264       O627   2.237   1_645  S
In264       O628   2.234   1_545  S
In264       O629   2.260   1_545  S
In264       O632   2.259   1_545  S
C265        O271   1.257       .  A
C265        O273   1.258   1_455  A
O266        C274   1.261       .  A
O267        C274   1.262       .  A
C268        C278   1.479       .  S
C268        O275   1.258   1_455  A
C268        O269   1.260       .  A
C270        C298   1.478       .  S
C270        O272   1.259       .  A
C270        O276   1.260       .  A
O271       In620   2.237   1_455  S
O272       In620   2.234       .  S
O273       In620   2.260       .  S
O276       In620   2.259       .  S
C277        C278   1.407       .  A
C277        C282   1.398       .  A
C277        H284   1.083       .  S
C278        C279   1.408       .  A
C279        C280   1.398       .  A
C279        F286   1.357       .  S
C280        C281   1.401       .  A
C280        H285   1.084       .  S
C281        C282   1.402       .  A
C282        F283   1.357       .  S
C287        C288   1.403       .  A
C287        C292   1.393       .  A
C288        C289   1.410       .  A
C289        C290   1.402       .  A
C289        F296   1.357   1_455  S
C290        C291   1.403       .  A
C290        H295   1.083       .  S
C291        C292   1.404       .  A
C292        F293   1.358       .  S
C297        C298   1.403       .  A
C297        C302   1.393       .  A
C297        H304   1.083       .  S
C298        C299   1.410       .  A
C299        C300   1.403       .  A
C299        F306   1.357       .  S
C300        C301   1.404       .  A
C300        H305   1.083       .  S
C301        C302   1.406       .  A
C302        F303   1.358       .  S
C307        C308   1.403       .  A
C307        C312   1.394       .  A
C307        H314   1.083       .  S
C308        C309   1.409       .  A
C309        C310   1.402       .  A
C309        F316   1.357       .  S
C310        C311   1.404       .  A
C310        H315   1.083       .  S
C311        C312   1.406       .  A
C312        F313   1.358       .  S
C317        C318   1.407       .  A
C317        C322   1.402       .  A
C317        H324   1.083       .  S
C318        C319   1.407       .  A
C319        C320   1.392       .  A
C319        F326   1.358       .  S
C320        C321   1.403       .  A
C320        H325   1.084       .  S
C321        C322   1.406       .  A
C322        F323   1.357       .  S
C327        C328   1.405       .  A
C327        C332   1.397       .  A
C327        H334   1.083       .  S
C328        C329   1.410       .  A
C329        C330   1.400       .  A
C329        F336   1.357       .  S
C330        C331   1.401       .  A
C330        H335   1.083       .  S
C331        C332   1.402       .  A
C332        F333   1.358       .  S
C337        C338   1.405       .  A
C337        C342   1.390       .  A
C337        H344   1.083       .  S
C338        C339   1.410       .  A
C339        C340   1.405       .  A
C339        F346   1.357       .  S
C340        C341   1.404       .  A
C340        H345   1.083       .  S
C341        C342   1.402       .  A
C342        F343   1.358       .  S
C347        C348   1.404       .  A
C347        C352   1.390       .  A
C347        H354   1.083       .  S
C348        C349   1.410       .  A
C349        C350   1.405       .  A
C349        F356   1.357       .  S
C350        C351   1.406       .  A
C350        H355   1.083       .  S
C351        C352   1.405       .  A
C352        F353   1.358       .  S
C357        C358   1.406       .  A
C357        C362   1.405       .  A
C357        C526   1.486       .  S
C358        C359   1.409       .  A
C358        H363   1.083       .  S
C359        C360   1.409       .  A
C360        C361   1.400       .  A
C360        H364   1.084       .  S
C361        C362   1.397       .  A
C361        C408   1.478       .  S
C362        H365   1.084       .  S
C366        C367   1.406       .  A
C366        C371   1.405       .  A
C366        C516   1.485       .  S
C367        C368   1.409       .  A
C367        H372   1.083   1_565  S
C368        C369   1.408       .  A
C369        C370   1.400       .  A
C369        H373   1.084       .  S
C370        C371   1.397       .  A
C370        C417   1.478       .  S
C371        H374   1.084       .  S
C375        C376   1.400       .  A
C375        C380   1.401       .  A
C375        C509   1.471       .  S
C376        C377   1.406       .  A
C376        H381   1.084       .  S
C377        C378   1.409       .  A
C378        C379   1.404       .  A
C378        H382   1.084       .  S
C379        C380   1.403       .  A
C379        C435   1.481       .  S
C380        H383   1.084       .  S
C384        C385   1.404       .  A
C384        C389   1.403       .  A
C384        C499   1.481       .  S
C385        C386   1.409       .  A
C385        H390   1.083       .  S
C386        C387   1.408       .  A
C387        C388   1.401       .  A
C387        H391   1.084       .  S
C388        C389   1.397       .  A
C388        C426   1.473       .  S
C389        H392   1.085       .  S
In393       O395   2.265       .  S
In393       O396   2.215       .  S
In393       O404   2.265       .  S
In393       O398   2.236       .  S
In393       O400   2.254       .  S
In393       O401   2.221       .  S
In393       O402   2.249       .  S
In393       O405   2.275       .  S
C394        C506   1.479       .  S
C394        O400   1.259       .  A
C394        O402   1.257       .  A
O395        C403   1.264       .  A
O396        C403   1.260       .  A
C397        C674   1.478       .  S
C397        O404   1.259       .  A
C397        O398   1.256       .  A
C399        C707   1.476       .  S
C399        O401   1.257       .  A
C399        O405   1.262       .  A
C403        C519   1.469       .  S
C406        C407   1.404       .  A
C406        C411   1.403       .  A
C406        C489   1.480       .  S
C407        C408   1.400       .  A
C407        H412   1.084       .  S
C408        C409   1.402       .  A
C409        C410   1.407       .  A
C409        H413   1.084       .  S
C410        C411   1.406       .  A
C410        C419   1.481       .  S
C411        H414   1.084       .  S
C415        C416   1.404       .  A
C415        C420   1.404       .  A
C415        C479   1.480       .  S
C416        C417   1.399       .  A
C416        H421   1.084       .  S
C417        C418   1.401       .  A
C418        C419   1.407       .  A
C418        H422   1.084       .  S
C419        C420   1.407       .  A
C420        H423   1.084       .  S
C424        C425   1.401       .  A
C424        C429   1.402       .  A
C424        C469   1.476       .  S
C425        C426   1.398       .  A
C425        H430   1.085       .  S
C426        C427   1.402       .  A
C427        C428   1.408       .  A
C427        H431   1.084       .  S
C428        C429   1.409       .  A
C428        C437   1.484       .  S
C429        H432   1.084       .  S
C433        C434   1.402       .  A
C433        C438   1.400       .  A
C433        C459   1.472       .  S
C434        C435   1.403       .  A
C434        H439   1.084       .  S
C435        C436   1.404       .  A
C436        C437   1.408       .  A
C436        H440   1.084       .  S
C437        C438   1.405       .  A
C438        H441   1.084       .  S
In442       O444   2.248       .  S
In442       O445   2.238       .  S
In442       O453   2.245       .  S
In442       O447   2.253   1_655  S
C443        C644   1.477       .  S
C443        O449   1.257       .  A
C443        O451   1.258   1_455  A
O444        C452   1.261       .  A
O445        C452   1.262       .  A
C446        C456   1.479       .  S
C446        O453   1.258   1_455  A
C446        O447   1.260       .  A
C448        C476   1.478       .  S
C448        O450   1.259       .  A
C448        O454   1.260       .  A
C452        C664   1.477       .  S
C455        C456   1.407       .  A
C455        C460   1.398       .  A
C455        H462   1.083       .  S
C456        C457   1.408       .  A
C457        C458   1.398       .  A
C457        F464   1.357       .  S
C458        C459   1.401       .  A
C458        H463   1.084       .  S
C459        C460   1.402       .  A
C460        F461   1.357       .  S
C465        C466   1.403       .  A
C465        C470   1.393       .  A
C465        H650   1.083   1_554  S
C466        C467   1.410       .  A
C466        C621   1.477   1_554  S
C467        C468   1.402       .  A
C467        F474   1.357   1_455  S
C468        C469   1.403       .  A
C468        H473   1.083       .  S
C469        C470   1.404       .  A
C470        F471   1.358       .  S
H472        C643   1.083       .  S
C475        C476   1.403       .  A
C475        C480   1.393       .  A
C475        H482   1.083       .  S
C476        C477   1.410       .  A
C477        C478   1.403       .  A
C477        F484   1.357       .  S
C478        C479   1.404       .  A
C478        H483   1.083       .  S
C479        C480   1.406       .  A
C480        F481   1.358       .  S
C485        C486   1.403       .  A
C485        C490   1.394       .  A
C485        H492   1.083   1_554  S
C486        C487   1.409       .  A
C486        C630   1.477   1_554  S
C487        C488   1.402       .  A
C487        F494   1.357       .  S
C488        C489   1.404       .  A
C488        H493   1.083       .  S
C489        C490   1.406       .  A
C490        F491   1.358       .  S
C495        C496   1.407       .  A
C495        C500   1.402       .  A
C495        H502   1.083       .  S
C496        C497   1.407       .  A
C496        C575   1.478   1_554  S
C497        C498   1.392       .  A
C497        F504   1.358   1_554  S
C498        C499   1.403       .  A
C498        H503   1.084       .  S
C499        C500   1.406       .  A
C500        F501   1.357       .  S
C505        C506   1.405       .  A
C505        C510   1.397       .  A
C505        H512   1.083       .  S
C506        C507   1.410       .  A
C507        C508   1.400       .  A
C507        F514   1.357       .  S
C508        C509   1.401       .  A
C508        H513   1.083       .  S
C509        C510   1.402       .  A
C510        F511   1.358       .  S
C515        C516   1.405       .  A
C515        C520   1.390       .  A
C515        H522   1.083       .  S
C516        C517   1.410       .  A
C517        C518   1.405       .  A
C517        F524   1.357       .  S
C518        C519   1.404       .  A
C518        H523   1.083       .  S
C519        C520   1.402       .  A
C520        F521   1.358       .  S
C525        C526   1.404       .  A
C525        C530   1.390       .  A
C525        H532   1.083       .  S
C526        C527   1.410       .  A
C527        C528   1.405       .  A
C527        F534   1.357       .  S
C528        C529   1.406       .  A
C528        H533   1.083       .  S
C529        C530   1.405       .  A
C529        C577   1.476   1_554  S
C530        F531   1.358   1_554  S
C535        C536   1.406       .  A
C535        C540   1.405       .  A
C535        C704   1.486       .  S
C536        C537   1.409       .  A
C536        H541   1.083       .  S
C537        C538   1.409       .  A
C538        C539   1.400       .  A
C538        H542   1.084       .  S
C539        C540   1.397       .  A
C539        C586   1.478       .  S
C540        H543   1.084       .  S
C544        C545   1.406       .  A
C544        C549   1.405       .  A
C544        C694   1.485       .  S
C545        C546   1.409       .  A
C545        H550   1.083   1_565  S
C546        C547   1.408       .  A
C547        C548   1.400       .  A
C547        H551   1.084       .  S
C548        C549   1.397       .  A
C548        C595   1.478       .  S
C549        H552   1.084       .  S
C553        C554   1.400       .  A
C553        C558   1.401       .  A
C553        C687   1.471       .  S
C554        C555   1.406       .  A
C554        H559   1.084       .  S
C555        C556   1.409       .  A
C556        C557   1.404       .  A
C556        H560   1.084       .  S
C557        C558   1.403       .  A
C557        C613   1.481       .  S
C558        H561   1.084       .  S
C562        C563   1.404       .  A
C562        C567   1.403       .  A
C562        C677   1.481       .  S
C563        C564   1.409       .  A
C563        H568   1.083       .  S
C564        C565   1.408       .  A
C565        C566   1.401       .  A
C565        H569   1.084       .  S
C566        C567   1.397       .  A
C566        C604   1.473       .  S
C567        H570   1.085       .  S
In571       O573   2.265       .  S
In571       O574   2.215       .  S
In571       O582   2.265       .  S
In571       O576   2.236       .  S
In571       O578   2.254       .  S
In571       O579   2.221       .  S
In571       O580   2.249       .  S
In571       O583   2.275       .  S
C572        C684   1.479       .  S
C572        O578   1.259       .  A
C572        O580   1.257       .  A
O573        C581   1.264       .  A
O574        C581   1.260       .  A
C575        O582   1.259       .  A
C575        O576   1.256       .  A
C577        O579   1.257       .  A
C577        O583   1.262       .  A
C581        C697   1.469       .  S
C584        C585   1.404       .  A
C584        C589   1.403       .  A
C584        C667   1.480       .  S
C585        C586   1.400       .  A
C585        H590   1.084       .  S
C586        C587   1.402       .  A
C587        C588   1.407       .  A
C587        H591   1.084       .  S
C588        C589   1.406       .  A
C588        C597   1.481       .  S
C589        H592   1.084       .  S
C593        C594   1.404       .  A
C593        C598   1.404       .  A
C593        C657   1.480       .  S
C594        C595   1.399       .  A
C594        H599   1.084       .  S
C595        C596   1.401       .  A
C596        C597   1.407       .  A
C596        H600   1.084       .  S
C597        C598   1.407       .  A
C598        H601   1.084       .  S
C602        C603   1.401       .  A
C602        C607   1.402       .  A
C602        C647   1.476       .  S
C603        C604   1.398       .  A
C603        H608   1.085       .  S
C604        C605   1.402       .  A
C605        C606   1.408       .  A
C605        H609   1.084       .  S
C606        C607   1.409       .  A
C606        C615   1.484       .  S
C607        H610   1.084       .  S
C611        C612   1.402       .  A
C611        C616   1.400       .  A
C611        C637   1.472       .  S
C612        C613   1.403       .  A
C612        H617   1.084       .  S
C613        C614   1.404       .  A
C614        C615   1.408       .  A
C614        H618   1.084       .  S
C615        C616   1.405       .  A
C616        H619   1.084       .  S
In620       O622   2.248       .  S
In620       O623   2.238       .  S
In620       O631   2.245       .  S
In620       O625   2.253   1_655  S
C621        O627   1.257       .  A
C621        O629   1.258   1_455  A
O622        C630   1.261       .  A
O623        C630   1.262       .  A
C624        C634   1.479       .  S
C624        O631   1.258   1_455  A
C624        O625   1.260       .  A
C626        C654   1.478       .  S
C626        O628   1.259       .  A
C626        O632   1.260       .  A
C633        C634   1.407       .  A
C633        C638   1.398       .  A
C633        H640   1.083       .  S
C634        C635   1.408       .  A
C635        C636   1.398       .  A
C635        F642   1.357       .  S
C636        C637   1.401       .  A
C636        H641   1.084       .  S
C637        C638   1.402       .  A
C638        F639   1.357       .  S
C643        C644   1.403       .  A
C643        C648   1.393       .  A
C644        C645   1.410       .  A
C645        C646   1.402       .  A
C645        F652   1.357   1_455  S
C646        C647   1.403       .  A
C646        H651   1.083       .  S
C647        C648   1.404       .  A
C648        F649   1.358       .  S
C653        C654   1.403       .  A
C653        C658   1.393       .  A
C653        H660   1.083       .  S
C654        C655   1.410       .  A
C655        C656   1.403       .  A
C655        F662   1.357       .  S
C656        C657   1.404       .  A
C656        H661   1.083       .  S
C657        C658   1.406       .  A
C658        F659   1.358       .  S
C663        C664   1.403       .  A
C663        C668   1.394       .  A
C663        H670   1.083       .  S
C664        C665   1.409       .  A
C665        C666   1.402       .  A
C665        F672   1.357       .  S
C666        C667   1.404       .  A
C666        H671   1.083       .  S
C667        C668   1.406       .  A
C668        F669   1.358       .  S
C673        C674   1.407       .  A
C673        C678   1.402       .  A
C673        H680   1.083       .  S
C674        C675   1.407       .  A
C675        C676   1.392       .  A
C675        F682   1.358       .  S
C676        C677   1.403       .  A
C676        H681   1.084       .  S
C677        C678   1.406       .  A
C678        F679   1.357       .  S
C683        C684   1.405       .  A
C683        C688   1.397       .  A
C683        H690   1.083       .  S
C684        C685   1.410       .  A
C685        C686   1.400       .  A
C685        F692   1.357       .  S
C686        C687   1.401       .  A
C686        H691   1.083       .  S
C687        C688   1.402       .  A
C688        F689   1.358       .  S
C693        C694   1.405       .  A
C693        C698   1.390       .  A
C693        H700   1.083       .  S
C694        C695   1.410       .  A
C695        C696   1.405       .  A
C695        F702   1.357       .  S
C696        C697   1.404       .  A
C696        H701   1.083       .  S
C697        C698   1.402       .  A
C698        F699   1.358       .  S
C703        C704   1.404       .  A
C703        C708   1.390       .  A
C703        H710   1.083       .  S
C704        C705   1.410       .  A
C705        C706   1.405       .  A
C705        F712   1.357       .  S
C706        C707   1.406       .  A
C706        H711   1.083       .  S
C707        C708   1.405       .  A
C708        F709   1.358       .  S
