geometry optimzed in LAMMPS
_audit_creation_date              2020-11-30 
_audit_creation_method            'lammps2cif' 
_symmetry_space_group_name_H-M    'P1' 
_symmetry_Int_Tables_number       1 
_symmetry_cell_setting            triclinic 
loop_ 
_symmetry_equiv_pos_as_xyz 
  x,y,z 
_cell_length_a                    32.814475787558564 
_cell_length_b                    32.62313120160016 
_cell_length_c                    32.87823299333779 
_cell_angle_alpha                 90.93453359054479 
_cell_angle_beta                  90.79359213700505 
_cell_angle_gamma                 90.69843983067109 
loop_ 
_atom_site_label 
_atom_site_type_symbol 
_atom_site_fract_x 
_atom_site_fract_y 
_atom_site_fract_z 
_atom_site_charge 
C1          C  0.65667694  0.65874890  0.88063439     0.02760
C2          C  0.67795100  0.62791416  0.90019030    -0.13390
C3          C  0.67097656  0.62009949  0.94078825     0.00260
C4          C  0.63871038  0.64166662  0.96038218    -0.11910
C5          C  0.61760547  0.67402934  0.94035756     0.02750
C6          C  0.62625769  0.68094517  0.89990079    -0.11330
H7          H  0.70340941  0.61359710  0.88503107     0.08350
H8          H  0.63209659  0.63536515  0.99171056     0.05880
H9          H  0.61266231  0.70673439  0.88457596     0.05730
C10         C  0.91630331  0.66272155  0.62792438     0.02760
C11         C  0.93471664  0.68332651  0.59618495    -0.13390
C12         C  0.97473748  0.67502890  0.58630158     0.00260
C13         C  0.99547964  0.64409169  0.60832127    -0.11910
C14         C  0.97639337  0.62384696  0.64128225     0.02750
C15         C  0.93592487  0.63186470  0.64892860    -0.11330
H16         H  0.91916581  0.70874133  0.58214088     0.08350
H17         H  0.02716170  0.63826194  0.60205950     0.05880
H18         H  0.92119390  0.61809669  0.67481584     0.05730
C19         C  0.71552696  0.97083929  0.68882267     0.02760
C20         C  0.67579177  0.97909537  0.69999789    -0.13390
C21         C  0.64522043  0.98188843  0.67004743     0.00260
C22         C  0.65734067  0.98142389  0.62839969    -0.11910
C23         C  0.69971144  0.98296659  0.61845886     0.02750
C24         C  0.72829375  0.98181834  0.65037786    -0.11330
H25         H  0.66767024  0.97433793  0.73144566     0.08350
H26         H  0.63447211  0.97950457  0.60442341     0.05880
H27         H  0.76041965  0.97894689  0.64374449     0.05730
C28         C  0.73526429  0.74137237  0.75415081     0.01920
C29         C  0.76860921  0.72312254  0.73582398     0.01920
C30         C  0.78917477  0.74456672  0.70606598     0.01920
C31         C  0.78405098  0.78651853  0.70243505     0.01920
C32         C  0.75308250  0.80559457  0.72337297     0.01920
C33         C  0.72877447  0.78324629  0.74955980     0.01920
C34         C  0.44613269  0.39239959  0.93870502     0.02760
C35         C  0.42929152  0.37401956  0.90427665    -0.13390
C36         C  0.39208723  0.38640161  0.88937739     0.00260
C37         C  0.37134685  0.41911180  0.90619339    -0.11910
C38         C  0.38839103  0.44076758  0.93912418     0.02750
C39         C  0.42645622  0.42738706  0.95563332    -0.11330
H40         H  0.44360403  0.34768270  0.89008669     0.08350
H41         H  0.34188933  0.42728804  0.89357932     0.05880
H42         H  0.43994875  0.44326326  0.98153033     0.05730
C43         C  0.91120380  0.40668575  0.36972304     0.02760
C44         C  0.92942661  0.39002671  0.40374191    -0.13390
C45         C  0.96920674  0.40046027  0.41419651     0.00260
C46         C  0.98887435  0.43211487  0.39183535    -0.11910
C47         C  0.96902789  0.45018678  0.35749914     0.02750
C48         C  0.92996351  0.43687911  0.34719362    -0.11330
H49         H  0.91376378  0.36544594  0.41927462     0.08350
H50         H  0.01942028  0.44147193  0.40007256     0.05880
H51         H  0.91485317  0.44794372  0.32001774     0.05730
C52         C  0.41644773  0.90275249  0.38760687     0.02760
C53         C  0.44934597  0.92482993  0.37239986    -0.13390
C54         C  0.44512167  0.96671713  0.36771081     0.00260
C55         C  0.41509947  0.98736588  0.39063812    -0.11910
C56         C  0.38687065  0.96497353  0.41438763     0.02750
C57         C  0.38794221  0.92228436  0.41248660    -0.11330
H58         H  0.47150260  0.90881027  0.35399874     0.08350
H59         H  0.41279210  0.02022340  0.38894636     0.05880
H60         H  0.36356637  0.90455663  0.42590595     0.05730
C61         C  0.87339046  0.87667795  0.40164368     0.02760
C62         C  0.86243729  0.91655506  0.40968424    -0.13390
C63         C  0.88672248  0.94146251  0.43441847     0.00260
C64         C  0.92503855  0.92549988  0.44896306    -0.11910
C65         C  0.93622421  0.88385771  0.43993540     0.02750
C66         C  0.90937229  0.86031798  0.41589774    -0.11330
H67         H  0.83328264  0.92711211  0.39821975     0.08350
H68         H  0.94511844  0.94473268  0.46737558     0.05880
H69         H  0.91600925  0.82869324  0.40801801     0.05730
C70         C  0.89748137  0.94875527  0.57582251     0.02760
C71         C  0.87937515  0.92840784  0.60791913    -0.13390
C72         C  0.89390234  0.89074918  0.62028513     0.00260
C73         C  0.92860403  0.87379954  0.60374709    -0.11910
C74         C  0.94846255  0.89251758  0.57173411     0.02750
C75         C  0.93333496  0.93112426  0.55823069    -0.11330
H76         H  0.85098450  0.93925464  0.62043803     0.08350
H77         H  0.93790407  0.84378961  0.61385489     0.05880
H78         H  0.94816385  0.94633264  0.53358172     0.05730
C79         C  0.90087407  0.41498500  0.86541684     0.02760
C80         C  0.88009301  0.43383930  0.89686030    -0.13390
C81         C  0.89321778  0.47167991  0.91208292     0.00260
C82         C  0.92912335  0.48962043  0.89534574    -0.11910
C83         C  0.94850234  0.47081731  0.86125116     0.02750
C84         C  0.93546008  0.43216609  0.84890739    -0.11330
H85         H  0.85178845  0.42025227  0.90720882     0.08350
H86         H  0.94080606  0.51791996  0.90758858     0.05880
H87         H  0.94916123  0.41727003  0.82275037     0.05730
C88         C  0.88482693  0.60074976  0.90478902     0.02760
C89         C  0.85900431  0.61938182  0.87661907    -0.13390
C90         C  0.87226955  0.62955001  0.83822988     0.00260
C91         C  0.91141987  0.62087895  0.82584893    -0.11910
C92         C  0.93928838  0.60203776  0.85185923     0.02750
C93         C  0.92634172  0.59371319  0.89276012    -0.11330
H94         H  0.82787359  0.62669378  0.88431406     0.08350
H95         H  0.91982726  0.62909328  0.79523812     0.05880
H96         H  0.94803410  0.58222854  0.91462949     0.05730
C97         C  0.11207510  0.88659461  0.42308236     0.02760
C98         C  0.12660217  0.92360587  0.44351411    -0.13390
C99         C  0.16113351  0.94619421  0.42887448     0.00260
C100        C  0.17635955  0.93495445  0.39166479    -0.11910
C101        C  0.16350404  0.89890341  0.37239081     0.02750
C102        C  0.13120324  0.87509158  0.38704028    -0.11330
H103        H  0.11199100  0.93386564  0.47100349     0.08350
H104        H  0.20281353  0.95124636  0.38022201     0.05880
H105        H  0.12389509  0.84577756  0.37253998     0.05730
C106        C  0.12142029  0.88599194  0.57452536     0.02760
C107        C  0.12740112  0.88613331  0.61639133    -0.13390
C108        C  0.15915685  0.90959104  0.63379357     0.00260
C109        C  0.17437105  0.94370588  0.61366579    -0.11910
C110        C  0.17208516  0.94343953  0.57137548     0.02750
C111        C  0.14627510  0.91330082  0.55160927    -0.11330
H112        H  0.11323456  0.86218107  0.63401707     0.08350
H113        H  0.19725874  0.96294510  0.62890086     0.05880
H114        H  0.14763596  0.90943222  0.51927052     0.05730
O115        O  0.06513985  0.74313561  0.58944600    -0.80500
O116        O  0.06059544  0.83005538  0.42172034    -0.80530
O117        O  0.10401773  0.71909875  0.45406002    -0.80530
O118        O  0.08126333  0.85877206  0.51890705    -0.80480
O119        O  0.05828674  0.74340304  0.41159776    -0.80600
O120        O  0.07173596  0.82948059  0.57728796    -0.80520
O121        O  0.07745341  0.85902780  0.48005717    -0.80500
O122        O  0.10663965  0.72874070  0.54040263    -0.80540
C123        C  0.09548665  0.72336024  0.57668539     1.09190
C124        C  0.08179138  0.85716390  0.44194032     1.09070
C125        C  0.08805180  0.72006107  0.41869479     1.09210
C126        C  0.09078999  0.85612193  0.55611516     1.09090
O127        O  0.98244695  0.82839761  0.55629515    -0.80500
O128        O  0.98265522  0.73425414  0.44643244    -0.80580
O129        O  0.02847713  0.69082208  0.54196622    -0.80520
O130        O  0.00195932  0.87961678  0.47483198    -0.80500
O131        O  0.97446455  0.82212729  0.45292480    -0.80550
O132        O  0.98587635  0.74067880  0.55548032    -0.80510
O133        O  0.00683167  0.88365309  0.52799780    -0.80470
O134        O  0.02707824  0.68578194  0.45895547    -0.80540
Co135      Co  0.02825991  0.78490322  0.56227193     1.51530
Co136      Co  0.02116217  0.78246210  0.43933193     1.51690
Co137      Co  0.06527751  0.71278403  0.49919115     1.51570
Co138      Co  0.02805154  0.83332993  0.50316646     1.51470
O139        O  0.04576976  0.77577653  0.49920971    -1.42440
C140        C  0.98153351  0.86783428  0.55192304     1.09110
C141        C  0.99463756  0.69709389  0.44201597     1.09200
C142        C  0.99647530  0.70337109  0.55866590     1.09140
C143        C  0.97324237  0.86165257  0.45551081     1.09120
C144        C  0.39578090  0.61695597  0.93158966     0.02760
C145        C  0.38509415  0.63000696  0.89309636    -0.13390
C146        C  0.39972773  0.66695134  0.87887112     0.00260
C147        C  0.43005797  0.68925672  0.89963572    -0.11910
C148        C  0.44550340  0.67553686  0.93672020     0.02750
C149        C  0.42845804  0.63829516  0.95261312    -0.11330
H150        H  0.36044770  0.61481194  0.87614891     0.08350
H151        H  0.43918367  0.71893224  0.88822094     0.05880
H152        H  0.43920859  0.62703610  0.98148622     0.05730
C153        C  0.36880156  0.96624596  0.59202853     0.02760
C154        C  0.34471293  0.94370100  0.61848077    -0.13390
C155        C  0.35802894  0.93600163  0.65781876     0.00260
C156        C  0.39499399  0.95059548  0.67248175    -0.11910
C157        C  0.42208387  0.97021507  0.64725760     0.02750
C158        C  0.40941145  0.97725479  0.60575252    -0.11330
H159        H  0.31529183  0.93208161  0.60872646     0.08350
H160        H  0.40371248  0.94343308  0.70351762     0.05880
H161        H  0.42987954  0.99257506  0.58523076     0.05730
C162        C  0.25833648  0.79361789  0.71240293     0.01920
C163        C  0.27947095  0.81239475  0.74480710     0.01920
C164        C  0.29567816  0.78801737  0.77494665     0.01920
C165        C  0.29457172  0.74546612  0.76917598     0.01920
C166        C  0.27969329  0.72798828  0.73254901     0.01920
C167        C  0.27002037  0.75350322  0.70009041     0.01920
C168        C  0.17854622  0.65967163  0.61721002     0.02760
C169        C  0.16231420  0.63983682  0.65143204    -0.13390
C170        C  0.12072542  0.64341711  0.66051008     0.00260
C171        C  0.09796302  0.67290432  0.63786859    -0.11910
C172        C  0.11453446  0.69013486  0.60174869     0.02750
C173        C  0.15136525  0.67456621  0.58831784    -0.11330
H174        H  0.18188974  0.62518758  0.67325824     0.08350
H175        H  0.06759182  0.68101888  0.64722944     0.05880
H176        H  0.16367564  0.68516521  0.55984884     0.05730
O177        O  0.98976948  0.59783350  0.70855456    -0.80500
O178        O  0.98036351  0.48242376  0.79610232    -0.80530
O179        O  0.02339206  0.49925491  0.65577677    -0.80530
O180        O  0.00304877  0.56434752  0.84935755    -0.80480
O181        O  0.98157287  0.48566197  0.70616024    -0.80600
O182        O  0.98572108  0.59791307  0.79476725    -0.80520
O183        O  0.00342984  0.51774588  0.84942292    -0.80500
O184        O  0.03181096  0.58281273  0.65913257    -0.80540
C185        C  0.99974103  0.59938953  0.67119478     1.09190
C186        C  0.97950016  0.49056206  0.83492911     1.09070
C187        C  0.99162983  0.48141375  0.66857559     1.09210
C188        C  0.97902966  0.58929772  0.83243823     1.09090
O189        O  0.07802373  0.61255448  0.79604232    -0.80500
O190        O  0.05623779  0.44996206  0.70754479    -0.80580
O191        O  0.11102678  0.57814373  0.69338789    -0.80520
O192        O  0.07680059  0.51411830  0.82646758    -0.80500
O193        O  0.06828850  0.45774506  0.79071788    -0.80550
O194        O  0.07114232  0.62798178  0.71188804    -0.80510
O195        O  0.07895379  0.55412882  0.82771490    -0.80470
O196        O  0.10336938  0.49131720  0.68487837    -0.80540
Co197      Co  0.03271323  0.60178535  0.75267037     1.51530
Co198      Co  0.02385518  0.47670896  0.75016635     1.51690
Co199      Co  0.06601629  0.53808773  0.68038805     1.51570
Co200      Co  0.02748045  0.53896900  0.80014527     1.51470
O201        O  0.04785817  0.53807003  0.74357925    -1.42440
C202        C  0.09447558  0.58893992  0.82225231     1.09110
C203        C  0.08583684  0.45657173  0.68449690     1.09200
C204        C  0.10158166  0.61575831  0.69180703     1.09140
C205        C  0.08733237  0.47750237  0.81912512     1.09120
C206        C  0.12257191  0.45993720  0.84331677     0.02760
C207        C  0.14186988  0.42404040  0.82970925    -0.13390
C208        C  0.17658578  0.40959543  0.85035566     0.00260
C209        C  0.19217851  0.42983134  0.88475936    -0.11910
C210        C  0.17531550  0.46598165  0.89863505     0.02750
C211        C  0.13981597  0.48088221  0.87836102    -0.11330
H212        H  0.13144797  0.40857847  0.80198531     0.08350
H213        H  0.21987098  0.41875929  0.89907077     0.05880
H214        H  0.12683166  0.50944675  0.88874330     0.05730
C215        C  0.20442663  0.60406795  0.81046621     0.02760
C216        C  0.16417408  0.59231194  0.80486912    -0.13390
C217        C  0.13716982  0.59505564  0.83650984     0.00260
C218        C  0.15334331  0.59425264  0.87722513    -0.11910
C219        C  0.19645905  0.59963272  0.88395061     0.02750
C220        C  0.22019619  0.60926052  0.84999901    -0.11330
H221        H  0.15268205  0.58685341  0.77403029     0.08350
H222        H  0.13343189  0.58789252  0.90238207     0.05880
H223        H  0.25136388  0.61974472  0.85446123     0.05730
C224        C  0.40420028  0.89167394  0.86340892     0.02760
C225        C  0.42038044  0.92566056  0.84362900    -0.13390
C226        C  0.45641254  0.94415787  0.85800731     0.00260
C227        C  0.47548122  0.92756459  0.89358211    -0.11910
C228        C  0.45928176  0.89223838  0.91286245     0.02750
C229        C  0.42250083  0.87619165  0.89813582    -0.11330
H230        H  0.40645825  0.93551673  0.81539685     0.08350
H231        H  0.50328443  0.94105787  0.90522482     0.05880
H232        H  0.40960548  0.84875989  0.91137239     0.05730
C233        C  0.60471123  0.89388432  0.91387273     0.02760
C234        C  0.63644956  0.87504309  0.89358272    -0.13390
C235        C  0.65192545  0.89159460  0.85840924     0.00260
C236        C  0.63849980  0.92874875  0.84367443    -0.11910
C237        C  0.60704465  0.94928132  0.86292507     0.02750
C238        C  0.59094912  0.93237597  0.89936647    -0.11330
H239        H  0.64689734  0.84509345  0.90271087     0.08350
H240        H  0.64965927  0.93903288  0.81460831     0.05880
H241        H  0.56725271  0.94819296  0.91530352     0.05730
C242        C  0.10556385  0.63836927  0.33216946     0.02760
C243        C  0.09811905  0.65360611  0.37296302    -0.13390
C244        C  0.10306076  0.69678830  0.38257753     0.00260
C245        C  0.11386103  0.72252400  0.35180974    -0.11910
C246        C  0.12552696  0.70704421  0.31468532     0.02750
C247        C  0.12100832  0.66603649  0.30430146    -0.11330
H248        H  0.08852407  0.63271772  0.39621666     0.08350
H249        H  0.11789098  0.75519355  0.35823487     0.05880
H250        H  0.13052254  0.65591094  0.27444342     0.05730
C251        C  0.31690675  0.81232227  0.27864169     0.01920
C252        C  0.27691555  0.82592659  0.27472472     0.01920
C253        C  0.24853140  0.80118108  0.25350167     0.01920
C254        C  0.26239009  0.76836717  0.22996738     0.01920
C255        C  0.30149375  0.75320254  0.23747542     0.01920
C256        C  0.33040128  0.77939029  0.25562340     0.01920
C257        C  0.38724752  0.62695408  0.07922586     0.02760
C258        C  0.38960095  0.62719626  0.12143289    -0.13390
C259        C  0.40518685  0.66156030  0.14170809     0.00260
C260        C  0.43259288  0.68765634  0.12258767    -0.11910
C261        C  0.43338190  0.68813295  0.08020875     0.02750
C262        C  0.40895436  0.65832229  0.05812422    -0.11330
H263        H  0.37070936  0.60600500  0.13822783     0.08350
H264        H  0.44572180  0.71338952  0.13974130     0.05880
H265        H  0.40452332  0.66141978  0.02590426     0.05730
O266        O  0.36915575  0.57716834  0.98680798    -0.80500
O267        O  0.19389342  0.56628972  0.02731438    -0.80530
O268        O  0.25733564  0.57788558  0.91682174    -0.80530
O269        O  0.32679983  0.58390606  0.07887912    -0.80480
O270        O  0.20243870  0.57562948  0.95363142    -0.80600
O271        O  0.36681518  0.57948849  0.02610134    -0.80520
O272        O  0.24102985  0.57856006  0.07553028    -0.80500
O273        O  0.33964147  0.56825717  0.92771550    -0.80540
C274        C  0.36757821  0.58548055  0.94946507     1.09190
C275        C  0.20489773  0.58349283  0.06110954     1.09070
C276        C  0.21972939  0.58562720  0.92104436     1.09210
C277        C  0.35854994  0.59596966  0.06021814     1.09090
O278        O  0.38506340  0.50124146  0.02804632    -0.80500
O279        O  0.18058049  0.50651292  0.95963921    -0.80580
O280        O  0.32689229  0.48075479  0.94703433    -0.80520
O281        O  0.24918292  0.49008476  0.05567441    -0.80500
O282        O  0.19174550  0.51148393  0.03440047    -0.80550
O283        O  0.38229706  0.50021760  0.98132609    -0.80510
O284        O  0.33260235  0.49302486  0.06782289    -0.80470
O285        O  0.23884240  0.49221410  0.92826320    -0.80540
Co286      Co  0.33698567  0.52864652  0.00576337     1.51530
Co287      Co  0.22588421  0.53080910  0.98733251     1.51690
Co288      Co  0.29024337  0.53172438  0.93840413     1.51570
Co289      Co  0.28678890  0.53790184  0.06405000     1.51470
O290        O  0.28315053  0.55257746  0.00134744    -1.42440
C291        C  0.36886836  0.48209657  0.05685291     1.09110
C292        C  0.19899813  0.48963564  0.93046378     1.09200
C293        C  0.36527126  0.47613896  0.95560675     1.09140
C294        C  0.21139019  0.49304045  0.06147374     1.09120
O295        O  0.02026535  0.49965504  0.34427605    -0.80500
O296        O  0.07241683  0.50299949  0.15345477    -0.80530
O297        O  0.96597939  0.48643080  0.20279519    -0.80530
O298        O  0.10575731  0.49044801  0.29456089    -0.80480
O299        O  0.99547191  0.49777228  0.14351397    -0.80600
O300        O  0.06376888  0.49842167  0.34550000    -0.80520
O301        O  0.09575673  0.48410478  0.21076100    -0.80500
O302        O  0.97455634  0.48884337  0.29438488    -0.80540
C303        C  0.98842655  0.48143186  0.33102854     1.09190
C304        C  0.10095017  0.48718548  0.17288599     1.09070
C305        C  0.96541173  0.48407615  0.16285349     1.09210
C306        C  0.09351212  0.47940499  0.33033429     1.09090
O307        O  0.06331493  0.57714279  0.32587944    -0.80500
O308        O  0.00593982  0.57009464  0.15828989    -0.80580
O309        O  0.96550913  0.57818892  0.29127118    -0.80520
O310        O  0.11039109  0.57079591  0.19829442    -0.80500
O311        O  0.05524482  0.56658743  0.15707954    -0.80550
O312        O  0.02150769  0.57472531  0.32822836    -0.80510
O313        O  0.11409156  0.58267769  0.28359096    -0.80470
O314        O  0.95755768  0.57408020  0.20391206    -0.80540
Co315      Co  0.04196106  0.52545934  0.29714851     1.51530
Co316      Co  0.02582694  0.52144927  0.18781341     1.51690
Co317      Co  0.97384176  0.53342013  0.24789246     1.51570
Co318      Co  0.10154594  0.53342197  0.24670849     1.51470
O319        O  0.03875621  0.54738307  0.24288817    -1.42440
C320        C  0.09499942  0.59644372  0.31446466     1.09110
C321        C  0.97093975  0.58253954  0.16845171     1.09200
C322        C  0.98628143  0.58953297  0.32284269     1.09140
C323        C  0.09172553  0.57984948  0.16499511     1.09120
C324        C  0.20719895  0.44869559  0.16545693     0.02760
C325        C  0.22097289  0.46318401  0.12875454    -0.13390
C326        C  0.19380110  0.48065816  0.10123224     0.00260
C327        C  0.15240896  0.48536476  0.11333965    -0.11910
C328        C  0.14116987  0.47784950  0.15446310     0.02750
C329        C  0.16996440  0.46076975  0.18033054    -0.11330
H330        H  0.25116092  0.45428609  0.11920538     0.08350
H331        H  0.12947229  0.49365173  0.09128577     0.05880
H332        H  0.16100951  0.45012040  0.21004182     0.05730
C333        C  0.87770256  0.45967978  0.08476560     0.02760
C334        C  0.91548302  0.47571592  0.10116439    -0.13390
C335        C  0.93076019  0.46328057  0.14005447     0.00260
C336        C  0.90966029  0.43279477  0.15996917    -0.11910
C337        C  0.87398977  0.41594443  0.14324563     0.02750
C338        C  0.85802774  0.42880467  0.10610874    -0.11330
H339        H  0.93230124  0.49790712  0.08409854     0.08350
H340        H  0.91991508  0.42317030  0.18981700     0.05880
H341        H  0.82870563  0.41682125  0.09555508     0.05730
C342        C  0.89612043  0.66172747  0.14363111     0.02760
C343        C  0.87529663  0.64808741  0.10856337    -0.13390
C344        C  0.88629764  0.61161341  0.08950349     0.00260
C345        C  0.92142440  0.59086695  0.10602246    -0.11910
C346        C  0.94448336  0.60738624  0.14034431     0.02750
C347        C  0.93263735  0.64474078  0.15627456    -0.11330
H348        H  0.84660298  0.66218199  0.10048094     0.08350
H349        H  0.92965336  0.56172249  0.09352410     0.05880
H350        H  0.94682379  0.65593432  0.18444575     0.05730
O351        O  0.74225087  0.62441176  0.03289224    -0.80500
O352        O  0.82956250  0.45812550  0.02730159    -0.80530
O353        O  0.72033955  0.48582676  0.06736163    -0.80530
O354        O  0.86042415  0.55645234  0.04673778    -0.80480
O355        O  0.74646468  0.44582790  0.02051403    -0.80600
O356        O  0.82973288  0.61463611  0.03859697    -0.80520
O357        O  0.85899277  0.51675218  0.04397257    -0.80500
O358        O  0.72759768  0.57325166  0.07202219    -0.80540
C359        C  0.72118312  0.60972719  0.06127047     1.09190
C360        C  0.85496164  0.47861542  0.04981009     1.09070
C361        C  0.72324416  0.45074246  0.05037372     1.09210
C362        C  0.85754158  0.59376770  0.05678688     1.09090
O363        O  0.82582329  0.59292474  0.94816381    -0.80500
O364        O  0.73829236  0.48274958  0.94633747    -0.80580
O365        O  0.68948126  0.57602998  0.99444524    -0.80520
O366        O  0.88183546  0.51433410  0.97073841    -0.80500
O367        O  0.82746057  0.48769999  0.94107040    -0.80550
O368        O  0.73881196  0.59344921  0.95312656    -0.80510
O369        O  0.88285467  0.56691980  0.97082302    -0.80470
O370        O  0.68848521  0.49219571  0.98968365    -0.80540
Co371      Co  0.78408470  0.59925950  0.99513435     1.51530
Co372      Co  0.78521084  0.47534041  0.98583126     1.51690
Co373      Co  0.71324543  0.53247547  0.02968845     1.51570
Co374      Co  0.83398243  0.54053995  0.99415063     1.51470
O375        O  0.77649435  0.53530752  0.01134222    -1.42440
C376        C  0.86471433  0.58784678  0.94406346     1.09110
C377        C  0.70140795  0.47568068  0.95755812     1.09200
C378        C  0.70128715  0.59446420  0.96327813     1.09140
C379        C  0.86673993  0.49147182  0.94311492     1.09120
C380        C  0.62295775  0.97217611  0.34267298     0.02760
C381        C  0.65089864  0.96148452  0.31321571    -0.13390
C382        C  0.68952120  0.94964660  0.32430190     0.00260
C383        C  0.70532936  0.95847305  0.36280402    -0.11910
C384        C  0.67990852  0.97128707  0.39394337     0.02750
C385        C  0.63710263  0.97563164  0.38427571    -0.11330
H386        H  0.64099492  0.95593074  0.28191561     0.08350
H387        H  0.73639949  0.94959956  0.36965060     0.05880
H388        H  0.61593216  0.98374910  0.40794711     0.05730
C389        C  0.96882472  0.61882272  0.35429384     0.02760
C390        C  0.99136605  0.63868826  0.38697684    -0.13390
C391        C  0.97217462  0.66686209  0.41472265     0.00260
C392        C  0.93048209  0.67092039  0.41203594    -0.11910
C393        C  0.90954568  0.65468551  0.37854126     0.02750
C394        C  0.92753135  0.62762947  0.35108372    -0.11330
H395        H  0.02332313  0.63359581  0.38973379     0.08350
H396        H  0.91547891  0.69311488  0.43153123     0.05880
H397        H  0.90980847  0.61649263  0.32499744     0.05730
C398        C  0.74137704  0.79293982  0.27796829     0.01920
C399        C  0.76863301  0.77680707  0.30641833     0.01920
C400        C  0.78979739  0.74159713  0.29615129     0.01920
C401        C  0.78891767  0.72751195  0.25649220     0.01920
C402        C  0.75800923  0.73927610  0.23105013     0.01920
C403        C  0.73536273  0.77350956  0.24038845     0.01920
C404        C  0.64741614  0.64791554  0.13620691     0.02760
C405        C  0.66799281  0.61895113  0.11319125    -0.13390
C406        C  0.68425705  0.63189686  0.07640942     0.00260
C407        C  0.66579102  0.66681209  0.05747209    -0.11910
C408        C  0.63272360  0.68768910  0.07714640     0.02750
C409        C  0.62152340  0.67434086  0.11577079    -0.11330
H410        H  0.68283553  0.59439868  0.12931785     0.08350
H411        H  0.67777485  0.67834274  0.02932671     0.05880
H412        H  0.60070037  0.69255174  0.13366197     0.05730
O413        O  0.59109226  0.74242842  0.95270789    -0.80500
O414        O  0.47011060  0.83066725  0.95167042    -0.80530
O415        O  0.49074819  0.69198954  0.99289486    -0.80530
O416        O  0.55558464  0.88434913  0.96672619    -0.80480
O417        O  0.47559908  0.74233234  0.95161840    -0.80600
O418        O  0.59384052  0.83143434  0.95121117    -0.80520
O419        O  0.51039254  0.88375179  0.96564371    -0.80500
O420        O  0.57383872  0.69271186  0.99410161    -0.80540
C421        C  0.59189017  0.70457564  0.96266239     1.09190
C422        C  0.48058157  0.86848632  0.94549828     1.09070
C423        C  0.47319308  0.70442643  0.96081055     1.09210
C424        C  0.58460226  0.86959754  0.94641897     1.09090
O425        O  0.61003065  0.83052224  0.04053469    -0.80500
O426        O  0.44344675  0.74049936  0.03001023    -0.80580
O427        O  0.57523627  0.73182347  0.07246449    -0.80520
O428        O  0.51329284  0.86383071  0.04134385    -0.80500
O429        O  0.45752386  0.82609420  0.04128332    -0.80550
O430        O  0.62412533  0.74397006  0.03099402    -0.80510
O431        O  0.55346388  0.86515537  0.04202066    -0.80470
O432        O  0.49241762  0.73056747  0.07304122    -0.80540
Co433      Co  0.59675559  0.78691532  0.99587671     1.51530
Co434      Co  0.46973051  0.78496465  0.99551045     1.51690
Co435      Co  0.53302290  0.71732299  0.03191393     1.51570
Co436      Co  0.53299255  0.83533505  0.99157815     1.51470
O437        O  0.53335490  0.77916779  0.01276919    -1.42440
C438        C  0.58910898  0.85984860  0.05593593     1.09110
C439        C  0.45669672  0.72241661  0.06112446     1.09200
C440        C  0.61077474  0.72424431  0.06079640     1.09140
C441        C  0.47915770  0.85551331  0.05666988     1.09120
C442        C  0.46972029  0.87419782  0.09705036     0.02760
C443        C  0.47619818  0.91618812  0.10986082    -0.13390
C444        C  0.47042064  0.92835804  0.15166909     0.00260
C445        C  0.45667065  0.89848627  0.17832171    -0.11910
C446        C  0.45021406  0.85828214  0.16495415     0.02750
C447        C  0.45884125  0.84591327  0.12580600    -0.11330
H448        H  0.48606459  0.93856423  0.08802334     0.08350
H449        H  0.44889003  0.90664924  0.20932209     0.05880
H450        H  0.45351249  0.81400991  0.11701359     0.05730
C451        C  0.60506303  0.88628644  0.09139526     0.02760
C452        C  0.64274778  0.87568952  0.10709791    -0.13390
C453        C  0.65485190  0.88888900  0.14574390     0.00260
C454        C  0.63377723  0.91890506  0.16720503    -0.11910
C455        C  0.59778807  0.93462295  0.15149492     0.02750
C456        C  0.58287220  0.91762854  0.11310250    -0.11330
H457        H  0.65982501  0.85133816  0.09260131     0.08350
H458        H  0.64334573  0.92687781  0.19809589     0.05880
H459        H  0.55404621  0.92743040  0.10116828     0.05730
C460        C  0.64019171  0.36534038  0.06145247     0.02760
C461        C  0.65675086  0.40635626  0.05912118    -0.13390
C462        C  0.70022755  0.41292749  0.06161778     0.00260
C463        C  0.72495211  0.37876053  0.06509073    -0.11910
C464        C  0.70815256  0.34070670  0.07300392     0.02750
C465        C  0.66724721  0.33302626  0.06536279    -0.11330
H466        H  0.63669732  0.43198222  0.05449388     0.08350
H467        H  0.75764647  0.38305883  0.06922064     0.05880
H468        H  0.65577239  0.30206959  0.06977185     0.05730
C469        C  0.78683138  0.31569746  0.29133671     0.01920
C470        C  0.78527398  0.31528757  0.24924242     0.01920
C471        C  0.75523415  0.29213500  0.22929594     0.01920
C472        C  0.72848010  0.26783304  0.25088654     0.01920
C473        C  0.72995146  0.26919847  0.29308002     0.01920
C474        C  0.76244856  0.28913608  0.31287738     0.01920
C475        C  0.66555329  0.09860727  0.42577589     0.02760
C476        C  0.66934412  0.14099405  0.42722114    -0.13390
C477        C  0.64947920  0.16391984  0.39780109     0.00260
C478        C  0.61839695  0.14693317  0.37326953    -0.11910
C479        C  0.61424504  0.10469993  0.36916437     0.02750
C480        C  0.63758855  0.08048426  0.39654115    -0.11330
H481        H  0.69419780  0.15503392  0.44480117     0.08350
H482        H  0.60321896  0.16629374  0.35135456     0.05880
H483        H  0.63623460  0.04808817  0.39316908     0.05730
O484        O  0.56443276  0.01501572  0.33482283    -0.80500
O485        O  0.54439203  0.07382449  0.16157319    -0.80530
O486        O  0.55979666  0.94743290  0.21259971    -0.80530
O487        O  0.58297030  0.10831960  0.30182619    -0.80480
O488        O  0.56781355  0.99899474  0.17317535    -0.80600
O489        O  0.56602380  0.05610931  0.33875695    -0.80520
O490        O  0.57999791  0.10514236  0.21229706    -0.80500
O491        O  0.56772339  0.96038323  0.29537531    -0.80540
C492        C  0.58162789  0.98153947  0.32542298     1.09190
C493        C  0.57210323  0.09887346  0.17378029     1.09070
C494        C  0.57366184  0.96173872  0.18002099     1.09210
C495        C  0.58704255  0.08867661  0.33469922     1.09090
O496        O  0.48974152  0.06282688  0.35046175    -0.80500
O497        O  0.49190478  0.00009569  0.14822688    -0.80580
O498        O  0.47985928  0.97221971  0.30268602    -0.80520
O499        O  0.49964414  0.12046620  0.21506762    -0.80500
O500        O  0.46911915  0.06294297  0.20021104    -0.80550
O501        O  0.48765484  0.02145811  0.34981215    -0.80510
O502        O  0.49131972  0.11068683  0.30334638    -0.80470
O503        O  0.47790956  0.97651739  0.20955294    -0.80540
Co504      Co  0.51693615  0.03926133  0.30352886     1.51530
Co505      Co  0.51878322  0.02879453  0.19319231     1.51690
Co506      Co  0.52294166  0.97242462  0.25500060     1.51570
Co507      Co  0.53856350  0.10344512  0.25827358     1.51470
O508        O  0.54177478  0.03755840  0.25077120    -1.42440
C509        C  0.47652922  0.09660988  0.33756118     1.09110
C510        C  0.48003004  0.97017038  0.17007685     1.09200
C511        C  0.47198371  0.98762925  0.33858073     1.09140
C512        C  0.47438909  0.10088659  0.19326010     1.09120
O513        O  0.49744274  0.38487722  0.98987352    -0.80500
O514        O  0.49841846  0.19171384  0.04107280    -0.80530
O515        O  0.48242502  0.24571737  0.93941386    -0.80530
O516        O  0.49074985  0.33251326  0.07554754    -0.80480
O517        O  0.48740267  0.18368538  0.96303147    -0.80600
O518        O  0.49858583  0.38401764  0.03310504    -0.80520
O519        O  0.48659180  0.24307992  0.08260602    -0.80500
O520        O  0.49140291  0.33467235  0.94376549    -0.80540
C521        C  0.48072534  0.37050864  0.95775974     1.09190
C522        C  0.48473058  0.20448438  0.07438859     1.09070
C523        C  0.48081622  0.20636138  0.93266989     1.09210
C524        C  0.48024869  0.36889234  0.06309602     1.09090
O525        O  0.57523008  0.36409982  0.02751094    -0.80500
O526        O  0.56103996  0.19398400  0.97507155    -0.80580
O527        O  0.57982031  0.32443016  0.93427087    -0.80520
O528        O  0.57280504  0.23750492  0.07834081    -0.80500
O529        O  0.55534668  0.19257433  0.02816500    -0.80550
O530        O  0.57215947  0.36691290  0.98561732    -0.80510
O531        O  0.58329460  0.32193777  0.07804001    -0.80470
O532        O  0.56898856  0.23847101  0.92643751    -0.80540
Co533      Co  0.52328673  0.33588656  0.00886829     1.51530
Co534      Co  0.51452214  0.22675309  0.99532469     1.51690
Co535      Co  0.53214772  0.28560433  0.94280693     1.51570
Co536      Co  0.53392613  0.28406780  0.07220960     1.51470
O537        O  0.54375202  0.27991348  0.00806649    -1.42440
C538        C  0.59647178  0.35180643  0.05721778     1.09110
C539        C  0.57488600  0.20268679  0.94048227     1.09200
C540        C  0.59020022  0.35771758  0.95271992     1.09140
C541        C  0.57500213  0.20193881  0.06147689     1.09120
C542        C  0.40123264  0.13436129  0.11071402     0.02760
C543        C  0.42015985  0.10949880  0.13955755    -0.13390
C544        C  0.45810238  0.12159644  0.15565731     0.00260
C545        C  0.47918292  0.15514189  0.13641229    -0.11910
C546        C  0.46312619  0.17315539  0.10005772     0.02750
C547        C  0.42557850  0.15813037  0.08531657    -0.11330
H548        H  0.40162353  0.08823003  0.15656502     0.08350
H549        H  0.50783886  0.16647042  0.14907791     0.05880
H550        H  0.41121590  0.17350034  0.05996745     0.05730
C551        C  0.47965567  0.13365745  0.83784781     0.02760
C552        C  0.47798770  0.14613026  0.87969529    -0.13390
C553        C  0.47447759  0.18879409  0.89034110     0.00260
C554        C  0.46653643  0.21619573  0.85879039    -0.11910
C555        C  0.46744399  0.20284606  0.81819482     0.02750
C556        C  0.48024196  0.16369440  0.80858992    -0.11330
H557        H  0.48045810  0.12345588  0.90324617     0.08350
H558        H  0.45714669  0.24723579  0.86574837     0.05880
H559        H  0.48192191  0.15480708  0.77664217     0.05730
C560        C  0.65900986  0.16854755  0.87485951     0.02760
C561        C  0.64267552  0.13636378  0.85133351    -0.13390
C562        C  0.60320183  0.12214514  0.85721088     0.00260
C563        C  0.58129024  0.13983914  0.89075416    -0.11910
C564        C  0.59889075  0.17255000  0.91562344     0.02750
C565        C  0.63867233  0.18452883  0.90820223    -0.11330
H566        H  0.65933841  0.12589878  0.82492710     0.08350
H567        H  0.55085701  0.12945594  0.89647298     0.05880
H568        H  0.65132528  0.21146373  0.92385642     0.05730
O569        O  0.60577601  0.06995161  0.70437809    -0.80500
O570        O  0.46161937  0.08039572  0.78978810    -0.80530
O571        O  0.50659993  0.06527351  0.66328461    -0.80530
O572        O  0.55589014  0.06835408  0.83439330    -0.80480
O573        O  0.45498926  0.07229718  0.70512447    -0.80600
O574        O  0.60447063  0.08491239  0.79213039    -0.80520
O575        O  0.51288861  0.06955287  0.83162491    -0.80500
O576        O  0.55269044  0.05942928  0.66111484    -0.80540
C577        C  0.58854854  0.07435739  0.66910133     1.09190
C578        C  0.48305252  0.09124233  0.82081663     1.09070
C579        C  0.47161368  0.07982875  0.67116421     1.09210
C580        C  0.58704632  0.09046843  0.82636660     1.09090
O581        O  0.60136549  0.99618212  0.80598969    -0.80500
O582        O  0.46454183  0.98479568  0.70748233    -0.80580
O583        O  0.57304918  0.99577647  0.66261292    -0.80520
O584        O  0.50971366  0.99221695  0.84709234    -0.80500
O585        O  0.46261371  0.98879923  0.79803416    -0.80550
O586        O  0.59481757  0.98377325  0.72226891    -0.80510
O587        O  0.55066496  0.99228840  0.84936906    -0.80470
O588        O  0.49300163  0.99162168  0.64758030    -0.80540
Co589      Co  0.59661323  0.03500908  0.75532705     1.51530
Co590      Co  0.46774453  0.03268576  0.75051543     1.51690
Co591      Co  0.52337878  0.01523981  0.69299974     1.51570
Co592      Co  0.53189785  0.01973270  0.80108872     1.51470
O593        O  0.53329615  0.04354201  0.74800822    -1.42440
C594        C  0.58622606  0.98195538  0.83939931     1.09110
C595        C  0.46129371  0.98386040  0.66773643     1.09200
C596        C  0.60224810  0.98495219  0.68477702     1.09140
C597        C  0.47628516  0.97730608  0.83359886     1.09120
C598        C  0.62414043  0.38474195  0.93624229     0.02760
C599        C  0.64206720  0.37076143  0.90058423    -0.13390
C600        C  0.67486048  0.39152343  0.88403871     0.00260
C601        C  0.68948289  0.42829710  0.90007164    -0.11910
C602        C  0.67496569  0.44333747  0.93654325     0.02750
C603        C  0.64092114  0.42189268  0.95466964    -0.11330
H604        H  0.63287956  0.34156339  0.88687445     0.08350
H605        H  0.71620843  0.44219092  0.88660390     0.05880
H606        H  0.62883732  0.43296254  0.98310708     0.05730
C607        C  0.96824855  0.39460285  0.58672378     0.02760
C608        C  0.92889853  0.38527033  0.59912414    -0.13390
C609        C  0.91183065  0.40493745  0.63244841     0.00260
C610        C  0.93101324  0.43804419  0.65201692    -0.11910
C611        C  0.96964081  0.45084220  0.64046906     0.02750
C612        C  0.98838393  0.42909578  0.60683802    -0.11330
H613        H  0.91265158  0.35891964  0.58609166     0.08350
H614        H  0.91736431  0.45099237  0.67913015     0.05880
H615        H  0.01840359  0.43797894  0.59751693     0.05730
C616        C  0.78019724  0.27743906  0.70557552     0.01920
C617        C  0.80825647  0.30384215  0.72442119     0.01920
C618        C  0.80919076  0.30773013  0.76649717     0.01920
C619        C  0.77618580  0.29415796  0.78847376     0.01920
C620        C  0.74787354  0.26817717  0.76963923     0.01920
C621        C  0.74739836  0.26305037  0.72768103     0.01920
C622        C  0.65504543  0.15546376  0.62763340     0.02760
C623        C  0.62107297  0.13702181  0.64476077    -0.13390
C624        C  0.61216130  0.09623681  0.63656619     0.00260
C625        C  0.63483288  0.07605938  0.60490739    -0.11910
C626        C  0.66879087  0.09591437  0.58555391     0.02750
C627        C  0.67738604  0.13627403  0.59704511    -0.11330
H628        H  0.60658200  0.15203044  0.67041372     0.08350
H629        H  0.62745749  0.04492470  0.59692417     0.05880
H630        H  0.70520611  0.15078740  0.58663948     0.05730
O631        O  0.75414636  0.98361004  0.56990447    -0.80500
O632        O  0.83031440  0.99040567  0.43788992    -0.80530
O633        O  0.68051669  0.98659211  0.46662438    -0.80530
O634        O  0.88456791  0.99679078  0.52316279    -0.80480
O635        O  0.74032510  0.98208792  0.43787064    -0.80600
O636        O  0.83894273  0.99495719  0.57195045    -0.80520
O637        O  0.88257297  0.99689386  0.48128117    -0.80500
O638        O  0.69453869  0.99409525  0.54630102    -0.80540
C639        C  0.71624460  0.98495424  0.57627555     1.09190
C640        C  0.86673094  0.97940137  0.45025192     1.09070
C641        C  0.70060321  0.98042421  0.43447054     1.09210
C642        C  0.87353331  0.98286756  0.55701292     1.09090
O643        O  0.82495315  0.08443557  0.57539399    -0.80500
O644        O  0.73206907  0.06882669  0.42900478    -0.80580
O645        O  0.69273854  0.05633550  0.52714783    -0.80520
O646        O  0.86200015  0.07300180  0.48232716    -0.80500
O647        O  0.81676316  0.08217577  0.43369198    -0.80550
O648        O  0.73734973  0.07027137  0.57855244    -0.80510
O649        O  0.86636892  0.07196818  0.52506752    -0.80470
O650        O  0.69256277  0.06049308  0.48202830    -0.80540
Co651      Co  0.78803606  0.03451585  0.56901225     1.51530
Co652      Co  0.78060925  0.03209059  0.44068018     1.51690
Co653      Co  0.72532815  0.01213983  0.49722452     1.51570
Co654      Co  0.83482608  0.02192902  0.50322445     1.51470
O655        O  0.77946874  0.04267277  0.50597011    -1.42440
C656        C  0.85805578  0.09277171  0.55680589     1.09110
C657        C  0.69820068  0.07488305  0.44680863     1.09200
C658        C  0.70147547  0.07345618  0.56204621     1.09140
C659        C  0.84845586  0.09439645  0.45338914     1.09120
C660        C  0.86476318  0.13711349  0.44838483     0.02760
C661        C  0.83539021  0.16715777  0.44407734    -0.13390
C662        C  0.84646219  0.20795305  0.43905973     0.00260
C663        C  0.88688635  0.22073271  0.44354239    -0.11910
C664        C  0.91794134  0.19232697  0.44837839     0.02750
C665        C  0.90675513  0.14968724  0.45047953    -0.11330
H666        H  0.80353599  0.15839189  0.44010176     0.08350
H667        H  0.89434252  0.25270492  0.43844820     0.05880
H668        H  0.93014133  0.12680576  0.45361745     0.05730
C669        C  0.88592959  0.12764390  0.57162645     0.02760
C670        C  0.87393835  0.14610992  0.60746982    -0.13390
C671        C  0.89119550  0.18270712  0.62101243     0.00260
C672        C  0.92475883  0.20010523  0.60254078    -0.11910
C673        C  0.94053853  0.18241349  0.56751086     0.02750
C674        C  0.92102475  0.14517865  0.55174970    -0.11330
H675        H  0.84699738  0.13496400  0.62278167     0.08350
H676        H  0.93558476  0.23008937  0.61301418     0.05880
H677        H  0.93174730  0.13134953  0.52401934     0.05730
C678        C  0.44828655  0.10326189  0.63986136     0.02760
C679        C  0.41971967  0.08337615  0.61246481    -0.13390
C680        C  0.39578116  0.10599725  0.58438279     0.00260
C681        C  0.40335749  0.14816244  0.58316818    -0.11910
C682        C  0.42125531  0.16784492  0.61738022     0.02750
C683        C  0.44748764  0.14601594  0.64283393    -0.11330
H684        H  0.41400773  0.05149242  0.61545307     0.08350
H685        H  0.38467464  0.16631233  0.56295959     0.05880
H686        H  0.46188118  0.16140494  0.66885265     0.05730
C687        C  0.31794673  0.28540692  0.77199750     0.01920
C688        C  0.27619651  0.29040052  0.77616678     0.01920
C689        C  0.25088693  0.27496877  0.74538767     0.01920
C690        C  0.26724176  0.25564665  0.71100765     0.01920
C691        C  0.30913739  0.25591079  0.70390711     0.01920
C692        C  0.33432424  0.26714353  0.73704212     0.01920
O693        O  0.37158071  0.01860515  0.45958791    -0.80500
O694        O  0.22365493  0.06122658  0.44408527    -0.80530
O695        O  0.22730686  0.97575556  0.45071081    -0.80530
O696        O  0.32813197  0.11029768  0.46316744    -0.80480
O697        O  0.17020132  0.00481304  0.47361819    -0.80600
O698        O  0.37423066  0.06111330  0.46160018    -0.80520
O699        O  0.23987121  0.12014984  0.47153107    -0.80500
O700        O  0.32205933  0.97197777  0.45069325    -0.80540
C701        C  0.35849641  0.98592285  0.44264550     1.09190
C702        C  0.21771650  0.09952082  0.44736635     1.09070
C703        C  0.18705257  0.97646987  0.45313318     1.09210
C704        C  0.36199354  0.09518799  0.44830138     1.09090
O705        O  0.36358722  0.05557834  0.53850400    -0.80500
O706        O  0.20203783  0.00602611  0.54785923    -0.80580
O707        O  0.31638597  0.96102730  0.53950260    -0.80520
O708        O  0.23778464  0.11005606  0.55309555    -0.80500
O709        O  0.18713296  0.07784260  0.51887756    -0.80550
O710        O  0.35824479  0.01386458  0.53703695    -0.80510
O711        O  0.32805400  0.10965623  0.55416912    -0.80470
O712        O  0.23204991  0.95030446  0.53093521    -0.80540
Co713      Co  0.32718884  0.03915463  0.48997028     1.51530
Co714      Co  0.21781475  0.03116320  0.49605718     1.51690
Co715      Co  0.27525302  0.97434407  0.49498116     1.51570
Co716      Co  0.28336854  0.10523157  0.51085937     1.51470
O717        O  0.27518834  0.03969685  0.51541473    -1.42440
C718        C  0.36055187  0.08913600  0.55844579     1.09110
C719        C  0.20347360  0.96778869  0.54926656     1.09200
C720        C  0.34789052  0.98022136  0.55334687     1.09140
C721        C  0.19917166  0.10384810  0.54543369     1.09120
O722        O  0.02023096  0.37180084  0.53848323    -0.80500
O723        O  0.04926095  0.19798595  0.52892284    -0.80530
O724        O  0.95587043  0.24683510  0.53686351    -0.80530
O725        O  0.11074142  0.32192638  0.54801486    -0.80480
O726        O  0.00259231  0.19935629  0.53055683    -0.80600
O727        O  0.06220271  0.36696583  0.54099427    -0.80520
O728        O  0.10660955  0.23648304  0.53693714    -0.80500
O729        O  0.96545971  0.33344721  0.54338171    -0.80540
C730        C  0.98567754  0.36550969  0.55458079     1.09190
C731        C  0.08536411  0.20406077  0.54411554     1.09070
C732        C  0.96811987  0.21045499  0.54389356     1.09210
C733        C  0.09235980  0.35353970  0.56125110     1.09090
O734        O  0.06569029  0.38620637  0.46319705    -0.80500
O735        O  0.99087512  0.18593601  0.45769685    -0.80580
O736        O  0.97452123  0.33899608  0.45487088    -0.80520
O737        O  0.10812043  0.24440169  0.45076339    -0.80500
O738        O  0.06890485  0.19310656  0.46646038    -0.80550
O739        O  0.02178819  0.38798601  0.46321706    -0.80510
O740        O  0.10596486  0.33269920  0.45584300    -0.80470
O741        O  0.96868420  0.24839174  0.45074762    -0.80540
Co742      Co  0.04092183  0.33919259  0.48931394     1.51530
Co743      Co  0.02378125  0.22967545  0.48256991     1.51690
Co744      Co  0.97302991  0.29151287  0.49784816     1.51570
Co745      Co  0.10177556  0.28447180  0.49887017     1.51470
O746        O  0.03793296  0.28370754  0.50997614    -1.42440
C747        C  0.09457892  0.36916439  0.44444812     1.09110
C748        C  0.96080221  0.20916882  0.45168622     1.09200
C749        C  0.98925252  0.37509540  0.44599493     1.09140
C750        C  0.10150186  0.20573693  0.45140444     1.09120
C751        C  0.14798729  0.14157704  0.36810690     0.02760
C752        C  0.17177612  0.11305891  0.38855454    -0.13390
C753        C  0.18126819  0.12028577  0.42929953     0.00260
C754        C  0.16032925  0.15280985  0.45012527    -0.11910
C755        C  0.12813177  0.17471620  0.43066107     0.02750
C756        C  0.12155155  0.16723380  0.38932427    -0.11330
H757        H  0.19108572  0.09275704  0.37109564     0.08350
H758        H  0.17044413  0.16226020  0.48022949     0.05880
H759        H  0.10154946  0.18729988  0.37252911     0.05730
C760        C  0.09933514  0.42003618  0.66147972     0.02760
C761        C  0.09457907  0.41100176  0.61865836    -0.13390
C762        C  0.10202746  0.37014248  0.60339479     0.00260
C763        C  0.11691339  0.34159295  0.63091538    -0.11910
C764        C  0.12039572  0.35154044  0.67198517     0.02750
C765        C  0.10804246  0.38845733  0.68723540    -0.11330
H766        H  0.08509961  0.43463722  0.59808834     0.08350
H767        H  0.12705841  0.31173013  0.62057213     0.05880
H768        H  0.11124033  0.39445610  0.71983801     0.05730
C769        C  0.10586478  0.17155805  0.56784081     0.02760
C770        C  0.11326410  0.18012916  0.60874969    -0.13390
C771        C  0.14819817  0.16490615  0.62763832     0.00260
C772        C  0.17335898  0.13700038  0.60767685    -0.11910
C773        C  0.16662365  0.12688094  0.56730867     0.02750
C774        C  0.13073529  0.14208531  0.54796761    -0.11330
H775        H  0.09718295  0.20515803  0.62329720     0.08350
H776        H  0.20171860  0.12765355  0.62189466     0.05880
H777        H  0.12366461  0.13370740  0.51684404     0.05730
C778        C  0.65436345  0.16464017  0.13261005     0.02760
C779        C  0.63538740  0.13211215  0.15187834    -0.13390
C780        C  0.59539493  0.12171165  0.14223615     0.00260
C781        C  0.57717519  0.13920506  0.10681295    -0.11910
C782        C  0.59794301  0.17043654  0.08481835     0.02750
C783        C  0.63733677  0.18159913  0.09760140    -0.11330
H784        H  0.64872144  0.12073920  0.17985861     0.08350
H785        H  0.54589996  0.13179002  0.09889894     0.05880
H786        H  0.65144294  0.20892088  0.08531712     0.05730
C787        C  0.16245707  0.66165047  0.13408557     0.02760
C788        C  0.18542681  0.64345685  0.10340156    -0.13390
C789        C  0.17397455  0.60562502  0.08677574     0.00260
C790        C  0.13767648  0.58663976  0.10200084    -0.11910
C791        C  0.11527407  0.60463124  0.13482098     0.02750
C792        C  0.12658447  0.64374797  0.14788659    -0.11330
H793        H  0.21452923  0.65701596  0.09535817     0.08350
H794        H  0.12834902  0.55736907  0.09014144     0.05880
H795        H  0.11158751  0.65731572  0.17399136     0.05730
C796        C  0.37516520  0.37843210  0.10527118     0.02760
C797        C  0.36230399  0.41710854  0.09404396    -0.13390
C798        C  0.38813450  0.44362296  0.07336914     0.00260
C799        C  0.42874221  0.42965491  0.06511179    -0.11910
C800        C  0.44203680  0.38965659  0.07756104     0.02750
C801        C  0.41453457  0.36525677  0.09834064    -0.11330
H802        H  0.33104827  0.42551284  0.09999901     0.08350
H803        H  0.44937437  0.44917348  0.04867294     0.05880
H804        H  0.42271036  0.33454270  0.10727861     0.05730
C805        C  0.37350645  0.14476120  0.34582524     0.02760
C806        C  0.41316440  0.13669809  0.33388668    -0.13390
C807        C  0.43903696  0.11406284  0.35826945     0.00260
C808        C  0.42372571  0.10165466  0.39753485    -0.11910
C809        C  0.38336376  0.11277839  0.41121051     0.02750
C810        C  0.35934298  0.13499119  0.38434996    -0.11330
H811        H  0.42223800  0.14470022  0.30339035     0.08350
H812        H  0.44228745  0.08221486  0.41643505     0.05880
H813        H  0.32801654  0.14175398  0.39179589     0.05730
C814        C  0.13306717  0.37141265  0.33718842     0.02760
C815        C  0.12540977  0.41096406  0.32389108    -0.13390
C816        C  0.10818024  0.44021313  0.34984324     0.00260
C817        C  0.09996896  0.42818429  0.39103231    -0.11910
C818        C  0.10867557  0.38739871  0.40483279     0.02750
C819        C  0.12523811  0.36002466  0.37693002    -0.11330
H820        H  0.13173272  0.41828316  0.29253268     0.08350
H821        H  0.08632903  0.44993524  0.41175986     0.05880
H822        H  0.13111943  0.32866321  0.38552784     0.05730
C823        C  0.23189874  0.28205447  0.19924475     0.01920
C824        C  0.26617414  0.26588797  0.17957014     0.01920
C825        C  0.28124767  0.22827719  0.19208291     0.01920
C826        C  0.26555002  0.21014796  0.22638672     0.01920
C827        C  0.22708553  0.22156752  0.23960807     0.01920
C828        C  0.21150661  0.25976817  0.22903912     0.01920
C829        C  0.12837093  0.32287490  0.27834441    -0.20670
C830        C  0.15148526  0.34139973  0.31009107    -0.07240
C831        C  0.19194563  0.33005548  0.31710550     0.13630
C832        C  0.20852562  0.30041889  0.29209333    -0.20730
C833        C  0.18687536  0.28283973  0.25909612    -0.07240
C834        C  0.14592750  0.29348686  0.25243233     0.13620
C835        C  0.12112347  0.27387138  0.21851649    -0.24070
H836        H  0.09687773  0.33154426  0.27384973     0.14910
H837        H  0.23998275  0.29369796  0.29634988     0.14930
C838        C  0.21854889  0.35073204  0.34946405    -0.24020
H839        H  0.08963401  0.28592561  0.21748642     0.05150
H840        H  0.11922752  0.24030768  0.22313364     0.08370
H841        H  0.13550802  0.27990855  0.18891525     0.08370
H842        H  0.20640002  0.34472161  0.38012389     0.08360
H843        H  0.21962410  0.38430522  0.34441573     0.08360
H844        H  0.25032034  0.33938463  0.34891597     0.05130
C845        C  0.34140800  0.20230056  0.31371124    -0.20670
C846        C  0.34536133  0.16023429  0.31562377    -0.07240
C847        C  0.32445546  0.13385901  0.28780511     0.13630
C848        C  0.29903989  0.15085580  0.25818046    -0.20730
C849        C  0.29474226  0.19335980  0.25620485    -0.07240
C850        C  0.31647830  0.21948298  0.28445365     0.13620
C851        C  0.31374181  0.26545834  0.28642919    -0.24070
H852        H  0.35805547  0.22193553  0.33533443     0.13710
H853        H  0.28224640  0.13115276  0.23685500     0.14930
C854        C  0.32897441  0.08804337  0.28965320    -0.24020
H855        H  0.34457001  0.27951150  0.28390815     0.05150
H856        H  0.30198776  0.27514382  0.31653461     0.08370
H857        H  0.29419798  0.27755132  0.26209742     0.08370
H858        H  0.31912518  0.07709076  0.31981484     0.08360
H859        H  0.36132585  0.07977811  0.28504281     0.08360
H860        H  0.31019745  0.07197664  0.26583099     0.05130
C861        C  0.32723508  0.32022104  0.09899458    -0.20670
C862        C  0.34653904  0.35043572  0.12352204    -0.07240
C863        C  0.33994930  0.35265027  0.16538009     0.13630
C864        C  0.31415415  0.32396863  0.18218360    -0.20730
C865        C  0.29374857  0.29400321  0.15811061    -0.07240
C866        C  0.30031498  0.29189119  0.11590728     0.13620
C867        C  0.27974725  0.26051686  0.08828151    -0.24070
H868        H  0.33312107  0.31893004  0.06662975     0.14910
H869        H  0.31043335  0.32456831  0.21472930     0.14930
C870        C  0.36057089  0.38475629  0.19234667    -0.24020
H871        H  0.26286460  0.27624916  0.06369867     0.05150
H872        H  0.25773894  0.24083196  0.10447731     0.08370
H873        H  0.30312792  0.24058534  0.07436390     0.08370
H874        H  0.35158049  0.41578437  0.18247401     0.08360
H875        H  0.39416948  0.38188470  0.19041287     0.08360
H876        H  0.35193914  0.38158343  0.22471070     0.05130
C877        C  0.15830820  0.14911074  0.29459672    -0.20670
C878        C  0.16844000  0.16082605  0.33460550    -0.07240
C879        C  0.19967615  0.19046128  0.34297245     0.13630
C880        C  0.21929028  0.20776158  0.31090759    -0.20730
C881        C  0.20784267  0.19812551  0.27122643    -0.07240
C882        C  0.17812232  0.16778811  0.26230218     0.13620
C883        C  0.16823720  0.15494642  0.21908068    -0.24070
H884        H  0.13511571  0.12572890  0.28881343     0.14910
H885        H  0.24337725  0.22976139  0.31697499     0.14930
C886        C  0.21305289  0.20504891  0.38505389    -0.24020
H887        H  0.14422656  0.13066619  0.21758495     0.05150
H888        H  0.19605033  0.14281096  0.20451199     0.08370
H889        H  0.15738835  0.18161297  0.20165616     0.08370
H890        H  0.22614416  0.17953616  0.40238724     0.08360
H891        H  0.18739594  0.21940853  0.40116257     0.08360
H892        H  0.23742282  0.22895868  0.38413593     0.05130
C893        C  0.18296350  0.22910299  0.63897899    -0.20670
C894        C  0.17009620  0.19177904  0.65568284    -0.07240
C895        C  0.19031522  0.17539610  0.68948206     0.13630
C896        C  0.22473926  0.19571058  0.70456974    -0.20730
C897        C  0.23846889  0.23198106  0.68673155    -0.07240
C898        C  0.21759570  0.24916201  0.65362463     0.13620
C899        C  0.23244339  0.28659550  0.63154694    -0.24070
H900        H  0.16833171  0.24058869  0.61171660     0.14910
H901        H  0.24036598  0.18411122  0.73119398     0.14930
C902        C  0.17553691  0.13671158  0.70930517    -0.24020
H903        H  0.23961499  0.27816634  0.59963138     0.05150
H904        H  0.26018310  0.30061079  0.64579408     0.08370
H905        H  0.20812614  0.30975515  0.63038331     0.08370
H906        H  0.17654904  0.11027103  0.68774808     0.08360
H907        H  0.14368899  0.14082240  0.71939345     0.08360
H908        H  0.19452171  0.12918992  0.73634115     0.05130
C909        C  0.22093496  0.33380594  0.71712820    -0.20670
C910        C  0.21371511  0.29714599  0.73717900    -0.07240
C911        C  0.17415338  0.28033574  0.74022322     0.13630
C912        C  0.14288675  0.29896292  0.71874515    -0.20730
C913        C  0.15162645  0.33332924  0.69561378    -0.07240
C914        C  0.19027308  0.35265558  0.69658858     0.13620
C915        C  0.20035015  0.39135107  0.67365866    -0.24070
H916        H  0.25180399  0.34564520  0.71437416     0.14910
H917        H  0.11223849  0.28617234  0.71895248     0.14930
C918        C  0.16438650  0.24282534  0.76422887    -0.24020
H919        H  0.23329834  0.39946210  0.67580900     0.05150
H920        H  0.18361871  0.41772515  0.68660031     0.08370
H921        H  0.19237523  0.38725732  0.64092571     0.08370
H922        H  0.19211256  0.22869570  0.77714085     0.08360
H923        H  0.14834064  0.21977160  0.74451565     0.08360
H924        H  0.14374418  0.25126043  0.78938374     0.05130
C925        C  0.36492325  0.26145465  0.65420110    -0.20670
C926        C  0.32788270  0.24200961  0.66490013    -0.07240
C927        C  0.32141066  0.20123502  0.65182037     0.13630
C928        C  0.35537395  0.17724665  0.64766003    -0.20730
C929        C  0.39283527  0.19535618  0.63768558    -0.07240
C930        C  0.39765384  0.23816470  0.63977400     0.13620
C931        C  0.43754184  0.25834855  0.62961522    -0.24070
H932        H  0.36979651  0.29358751  0.66191986     0.14910
H933        H  0.35053147  0.14455655  0.64293655     0.14930
C934        C  0.28696193  0.18945540  0.62294875    -0.24020
H935        H  0.43633393  0.29214075  0.63394040     0.05150
H936        H  0.44508692  0.25153177  0.59742113     0.08370
H937        H  0.46203244  0.24646522  0.64971489     0.08370
H938        H  0.27354131  0.21678357  0.60896661     0.08360
H939        H  0.26388042  0.17059525  0.63840097     0.08360
H940        H  0.29791000  0.17081822  0.59681114     0.05130
C941        C  0.81918358  0.21608472  0.69949622    -0.20670
C942        C  0.79955974  0.24790247  0.67887596    -0.07240
C943        C  0.80980959  0.25751288  0.63887519     0.13630
C944        C  0.84245107  0.23741542  0.62160183    -0.20730
C945        C  0.86418096  0.20819973  0.64375612    -0.07240
C946        C  0.85217483  0.19665198  0.68264914     0.13620
C947        C  0.87536881  0.16553585  0.70697621    -0.24070
H948        H  0.81179560  0.20991759  0.73087653     0.14910
H949        H  0.85055276  0.24386929  0.59044087     0.14930
C950        C  0.78763782  0.28911971  0.61453436    -0.24020
H951        H  0.86258048  0.16188065  0.73783044     0.05150
H952        H  0.90766278  0.17567550  0.71050121     0.08370
H953        H  0.87415282  0.13509348  0.69148324     0.08370
H954        H  0.76272535  0.30341742  0.63192633     0.08360
H955        H  0.77413877  0.27441610  0.58670639     0.08360
H956        H  0.80931169  0.31357154  0.60538744     0.05130
C957        C  0.72245987  0.19468171  0.71117829    -0.20670
C958        C  0.71757610  0.23676510  0.70703084    -0.07240
C959        C  0.69035109  0.25268518  0.67786895     0.13630
C960        C  0.66972036  0.22543250  0.65171283    -0.20730
C961        C  0.67690144  0.18355102  0.65429976    -0.07240
C962        C  0.70281012  0.16760289  0.68470524     0.13620
C963        C  0.71058469  0.12223017  0.68890275    -0.24070
H964        H  0.74386121  0.18309337  0.73339691     0.14910
H965        H  0.64867778  0.23676049  0.62892397     0.14930
C966        C  0.68288939  0.29790487  0.67340390    -0.24020
H967        H  0.73189577  0.11593932  0.71453518     0.05150
H968        H  0.72440384  0.10979147  0.66076312     0.08370
H969        H  0.68170231  0.10557535  0.69484239     0.08370
H970        H  0.69019381  0.30730367  0.64202128     0.08360
H971        H  0.70139544  0.31714935  0.69495122     0.08360
H972        H  0.65025888  0.30421678  0.67901551     0.05130
C973        C  0.81797760  0.36169709  0.67960526    -0.20670
C974        C  0.83529508  0.32832001  0.69960789    -0.07240
C975        C  0.87734572  0.32077956  0.69763506     0.13630
C976        C  0.90135228  0.34747035  0.67602592    -0.20730
C977        C  0.88409318  0.38055478  0.65583544    -0.07240
C978        C  0.84226642  0.38818974  0.65737849     0.13620
C979        C  0.82369566  0.42375257  0.63561466    -0.24070
H980        H  0.78553507  0.36710100  0.68185356     0.14910
H981        H  0.93389458  0.34216966  0.67428550     0.14930
C982        C  0.89792204  0.28513268  0.71728080    -0.24020
H983        H  0.79023500  0.42498243  0.64003599     0.05150
H984        H  0.82947076  0.42082405  0.60250591     0.08370
H985        H  0.83748243  0.45290891  0.64741964     0.08370
H986        H  0.87609283  0.26465038  0.73226015     0.08360
H987        H  0.92056347  0.29659138  0.74029233     0.08360
H988        H  0.91396195  0.26677318  0.69385546     0.05130
C989        C  0.72609539  0.33940052  0.87939169    -0.20670
C990        C  0.70252105  0.36863962  0.85945690    -0.07240
C991        C  0.70864272  0.37808390  0.81870170     0.13630
C992        C  0.73682959  0.35541240  0.79743307    -0.20730
C993        C  0.75820737  0.32368149  0.81638714    -0.07240
C994        C  0.75469642  0.31689928  0.85826229     0.13620
C995        C  0.78115878  0.28740029  0.88097143    -0.24070
H996        H  0.72218163  0.33459531  0.91169465     0.14910
H997        H  0.74002005  0.36017178  0.76503905     0.14930
C998        C  0.68412227  0.41029014  0.79743292    -0.24020
H999        H  0.77224396  0.28511933  0.91333244     0.05150
H1000       H  0.81316429  0.29843257  0.88067283     0.08370
H1001       H  0.77909751  0.25633253  0.86737073     0.08370
H1002       H  0.68975169  0.44067967  0.81223946     0.08360
H1003       H  0.65117143  0.40242128  0.79901773     0.08360
H1004       H  0.69232826  0.41262965  0.76488123     0.05130
C1005       C  0.66470783  0.22936652  0.83503491    -0.20670
C1006       C  0.68475290  0.19637702  0.85309170    -0.07240
C1007       C  0.72452946  0.18604372  0.84242464     0.13630
C1008       C  0.74377355  0.20947141  0.81337121    -0.20730
C1009       C  0.72366520  0.24245845  0.79547973    -0.07240
C1010       C  0.68360651  0.25239915  0.80570643     0.13620
C1011       C  0.65987538  0.28623900  0.78613472    -0.24070
H1012       H  0.63325273  0.23579763  0.84241187     0.14910
H1013       H  0.77490895  0.20276992  0.80509092     0.14930
C1014       C  0.74632693  0.15079230  0.86172944    -0.24020
H1015       H  0.63221001  0.27308169  0.77081728     0.05150
H1016       H  0.67753322  0.30283715  0.76307812     0.08370
H1017       H  0.65035229  0.30866890  0.80979336     0.08370
H1018       H  0.72975085  0.12158803  0.85490647     0.08360
H1019       H  0.74804520  0.15578213  0.89519924     0.08360
H1020       H  0.77785898  0.14782771  0.85028215     0.05130
C1021       C  0.40310897  0.19360167  0.78285411    -0.20670
C1022       C  0.43763019  0.21866672  0.78959663    -0.07240
C1023       C  0.44169511  0.25630586  0.76997002     0.13630
C1024       C  0.40911657  0.26949512  0.74584549    -0.20730
C1025       C  0.37283879  0.24615652  0.74322680    -0.07240
C1026       C  0.37062227  0.20667897  0.75978376     0.13620
C1027       C  0.33254638  0.17996083  0.75742263    -0.24070
H1028       H  0.40061713  0.16435171  0.79792320     0.14910
H1029       H  0.41020937  0.29968345  0.73264450     0.14930
C1030       C  0.47921253  0.28277036  0.77584199    -0.24020
H1031       H  0.33619800  0.15108799  0.77444593     0.05150
H1032       H  0.32537557  0.17118167  0.72554995     0.08370
H1033       H  0.30615160  0.19619687  0.77042716     0.08370
H1034       H  0.50639664  0.26564867  0.76573055     0.08360
H1035       H  0.48305755  0.29146277  0.80846698     0.08360
H1036       H  0.47720690  0.31134257  0.75805484     0.05130
C1037       C  0.38146619  0.19143451  0.15380893    -0.20670
C1038       C  0.36868373  0.15847453  0.12860489    -0.07240
C1039       C  0.32717358  0.14888166  0.12386790     0.13630
C1040       C  0.29911193  0.17328492  0.14445852    -0.20730
C1041       C  0.31237025  0.20641073  0.16944593    -0.07240
C1042       C  0.35418314  0.21523467  0.17447693     0.13620
C1043       C  0.37205690  0.24807159  0.20197572    -0.24070
H1044       H  0.41354790  0.19824398  0.15848179     0.14910
H1045       H  0.26679942  0.16630717  0.14159006     0.14930
C1046       C  0.31293999  0.11309309  0.09781802    -0.24020
H1047       H  0.39204437  0.23413216  0.22538584     0.05150
H1048       H  0.34853853  0.26509520  0.21758942     0.08370
H1049       H  0.39027053  0.27002222  0.18395749     0.08370
H1050       H  0.32601356  0.08436289  0.10972313     0.08360
H1051       H  0.32309956  0.11736857  0.06608359     0.08360
H1052       H  0.27919459  0.10994616  0.09753752     0.05130
C1053       C  0.72808159  0.20422330  0.21152435    -0.20670
C1054       C  0.70530631  0.23664139  0.22785529    -0.07240
C1055       C  0.66646237  0.24534998  0.21216711     0.13630
C1056       C  0.65230867  0.22310517  0.17847163    -0.20730
C1057       C  0.67590121  0.19208577  0.16078554    -0.07240
C1058       C  0.71381378  0.18189582  0.17769892     0.13620
C1059       C  0.73940388  0.14857475  0.15929270    -0.24070
H1060       H  0.75848615  0.19863466  0.22326146     0.14910
H1061       H  0.62197234  0.22909103  0.16659398     0.14930
C1062       C  0.63980590  0.27830141  0.22954478    -0.24020
H1063       H  0.76892296  0.14551847  0.17583125     0.05150
H1064       H  0.74589643  0.15588548  0.12713414     0.08370
H1065       H  0.72301681  0.11866963  0.16035551     0.08370
H1066       H  0.63281034  0.30096908  0.20571275     0.08360
H1067       H  0.65416854  0.29461150  0.25591326     0.08360
H1068       H  0.61078424  0.26433325  0.23983351     0.05130
C1069       C  0.71578568  0.20225060  0.31756421    -0.20670
C1070       C  0.70431329  0.24297965  0.31679954    -0.07240
C1071       C  0.67749834  0.25945027  0.34574951     0.13630
C1072       C  0.66166867  0.23354103  0.37489582    -0.20730
C1073       C  0.67415959  0.19284771  0.37620798    -0.07240
C1074       C  0.70261155  0.17721676  0.34797071     0.13620
C1075       C  0.71909764  0.13418578  0.34888229    -0.24070
H1076       H  0.73755564  0.19082317  0.29585459     0.14910
H1077       H  0.63902468  0.24467121  0.39594759     0.14930
C1078       C  0.66540275  0.30386125  0.34659769    -0.24020
H1079       H  0.74153510  0.12851685  0.32448401     0.05150
H1080       H  0.69426400  0.11130196  0.34424163     0.08370
H1081       H  0.73522463  0.12941203  0.37821003     0.08370
H1082       H  0.63178962  0.30599301  0.34325654     0.08360
H1083       H  0.67933699  0.32169682  0.32185378     0.08360
H1084       H  0.67503566  0.31820408  0.37609815     0.05130
C1085       C  0.77541383  0.28078700  0.38685277    -0.20670
C1086       C  0.78223845  0.26810744  0.34657465    -0.07240
C1087       C  0.80926942  0.23575902  0.33770365     0.13630
C1088       C  0.82873567  0.21701723  0.36942309    -0.20730
C1089       C  0.82244974  0.22963021  0.40948120    -0.07240
C1090       C  0.79571125  0.26154398  0.41892974     0.13620
C1091       C  0.78904540  0.27492009  0.46225522    -0.24070
H1092       H  0.75477036  0.30573505  0.39293645     0.14910
H1093       H  0.84977033  0.19236547  0.36285810     0.14930
C1094       C  0.81924539  0.21999798  0.29552948    -0.24020
H1095       H  0.76697861  0.30039439  0.46418613     0.05150
H1096       H  0.81839177  0.28555063  0.47622826     0.08370
H1097       H  0.77693487  0.24874786  0.47978474     0.08370
H1098       H  0.85247938  0.22337381  0.29041956     0.08360
H1099       H  0.80337895  0.23593540  0.27087771     0.08360
H1100       H  0.81104417  0.18693126  0.29280580     0.05130
C1101       C  0.70826309  0.34850032  0.14520877    -0.20670
C1102       C  0.72131321  0.32551466  0.11155727    -0.07240
C1103       C  0.74447392  0.29020167  0.11597820     0.13630
C1104       C  0.75571775  0.27921110  0.15518526    -0.20730
C1105       C  0.74346156  0.30318612  0.18860344    -0.07240
C1106       C  0.71891199  0.33778793  0.18385230     0.13620
C1107       C  0.70325199  0.36422053  0.21843315    -0.24070
H1108       H  0.68941542  0.37527719  0.14106475     0.14910
H1109       H  0.77338988  0.25189764  0.15965147     0.14930
C1110       C  0.75671271  0.26464356  0.07979985    -0.24020
H1111       H  0.71498407  0.39605842  0.21533724     0.05150
H1112       H  0.71197506  0.35345660  0.24904251     0.08370
H1113       H  0.66948297  0.36505261  0.21692996     0.08370
H1114       H  0.77535281  0.28351704  0.05909045     0.08360
H1115       H  0.72901085  0.25326117  0.06320061     0.08360
H1116       H  0.77487744  0.23776139  0.08905842     0.05130
C1117       C  0.65303345  0.82898691  0.18754474    -0.20670
C1118       C  0.67680962  0.85887891  0.16854170    -0.07240
C1119       C  0.71902930  0.85503097  0.16568234     0.13630
C1120       C  0.73725059  0.82241416  0.18516877    -0.20730
C1121       C  0.71390238  0.79503404  0.20812379    -0.07240
C1122       C  0.67122417  0.79663527  0.20725310     0.13620
C1123       C  0.64435102  0.76507425  0.22669802    -0.24070
H1124       H  0.62003933  0.83098676  0.18681903     0.14910
H1125       H  0.77005677  0.82058858  0.18554236     0.14930
C1126       C  0.74456830  0.88603403  0.14368581    -0.24020
H1127       H  0.62354344  0.78033150  0.24835081     0.05150
H1128       H  0.66197509  0.74170178  0.24319471     0.08370
H1129       H  0.62564980  0.74909114  0.20276156     0.08370
H1130       H  0.74038355  0.91689867  0.15765933     0.08360
H1131       H  0.73516068  0.88670255  0.11114421     0.08360
H1132       H  0.77749206  0.87863782  0.14531321     0.05130
C1133       C  0.71535672  0.67885368  0.22417017    -0.20670
C1134       C  0.73972815  0.70836132  0.20502741    -0.07240
C1135       C  0.73663369  0.71490571  0.16353597     0.13630
C1136       C  0.70373853  0.69786888  0.14337892    -0.20730
C1137       C  0.67694642  0.66991439  0.16235068    -0.07240
C1138       C  0.68401909  0.65877691  0.20271064     0.13620
C1139       C  0.65774686  0.62740362  0.22318209    -0.24070
H1140       H  0.71886739  0.67396605  0.25651691     0.14910
H1141       H  0.70026981  0.70645866  0.11220607     0.14930
C1142       C  0.76654285  0.74041991  0.14004302    -0.24020
H1143       H  0.66739816  0.62304979  0.25532675     0.05150
H1144       H  0.65988642  0.59745898  0.20687792     0.08370
H1145       H  0.62556358  0.63750166  0.22276279     0.08370
H1146       H  0.78076228  0.72089050  0.11632073     0.08360
H1147       H  0.79125735  0.75344978  0.15960916     0.08360
H1148       H  0.75052032  0.76583208  0.12477532     0.05130
C1149       C  0.83764063  0.66370966  0.36212910    -0.20670
C1150       C  0.87734593  0.67933166  0.36294836    -0.07240
C1151       C  0.88740998  0.71727269  0.34529438     0.13630
C1152       C  0.85683726  0.73879019  0.32683677    -0.20730
C1153       C  0.81751989  0.72259627  0.32426167    -0.07240
C1154       C  0.80712271  0.68520174  0.34249135     0.13620
C1155       C  0.76471448  0.66695941  0.34069624    -0.24070
H1156       H  0.83088411  0.63430712  0.37555462     0.14910
H1157       H  0.86415601  0.76735231  0.31258592     0.14930
C1158       C  0.93048772  0.73425938  0.34359009    -0.24020
H1159       H  0.75401164  0.66162917  0.37207181     0.05150
H1160       H  0.76505595  0.63724745  0.32375100     0.08370
H1161       H  0.74238177  0.68720705  0.32572714     0.08370
H1162       H  0.95079050  0.71153510  0.32901630     0.08360
H1163       H  0.94193586  0.74207865  0.37462358     0.08360
H1164       H  0.93224520  0.76279140  0.32565727     0.05130
C1165       C  0.74272022  0.86743539  0.26779105    -0.20670
C1166       C  0.72414902  0.83311093  0.28555339    -0.07240
C1167       C  0.69225098  0.83743134  0.31301647     0.13630
C1168       C  0.68046372  0.87659379  0.32337710    -0.20730
C1169       C  0.70074588  0.91076379  0.30746683    -0.07240
C1170       C  0.73131471  0.90673153  0.27878413     0.13620
C1171       C  0.75215195  0.94349997  0.26094357    -0.24070
H1172       H  0.76752916  0.86366042  0.24687052     0.14910
H1173       H  0.65657267  0.88087049  0.34549225     0.14930
C1174       C  0.67195934  0.80124150  0.33267798    -0.24020
H1175       H  0.77571837  0.93440269  0.23872642     0.05150
H1176       H  0.76715991  0.96212054  0.28557737     0.08370
H1177       H  0.72929050  0.96249937  0.24499331     0.08370
H1178       H  0.69425162  0.78508832  0.35185630     0.08360
H1179       H  0.65974528  0.77952648  0.30928885     0.08360
H1180       H  0.64640679  0.81075035  0.35236552     0.05130
C1181       C  0.87473128  0.72005209  0.18453829    -0.20670
C1182       C  0.87198684  0.67837421  0.17599156    -0.07240
C1183       C  0.84828594  0.65180465  0.20008415     0.13630
C1184       C  0.82515524  0.66858358  0.23096480    -0.20730
C1185       C  0.82479394  0.71080349  0.23708345    -0.07240
C1186       C  0.85117699  0.73694843  0.21510593     0.13620
C1187       C  0.85289160  0.78276799  0.22155074    -0.24070
H1188       H  0.89441058  0.73934871  0.16650958     0.14910
H1189       H  0.80457735  0.64928783  0.24794812     0.14930
C1190       C  0.84610814  0.60603517  0.19249912    -0.24020
H1191       H  0.87139269  0.79815368  0.19806853     0.05150
H1192       H  0.86722517  0.79045339  0.25125923     0.08370
H1193       H  0.82206295  0.79570379  0.22012384     0.08370
H1194       H  0.87682060  0.59264056  0.19575913     0.08360
H1195       H  0.83373395  0.59924281  0.16152318     0.08360
H1196       H  0.82592385  0.59053274  0.21447285     0.05130
C1197       C  0.85957163  0.34846997  0.17044537    -0.20670
C1198       C  0.85013427  0.39001453  0.16909677    -0.07240
C1199       C  0.82314082  0.40780092  0.19700431     0.13630
C1200       C  0.80472377  0.38283979  0.22528552    -0.20730
C1201       C  0.81266821  0.34092756  0.22560631    -0.07240
C1202       C  0.84137974  0.32344325  0.19905096     0.13620
C1203       C  0.85403249  0.27920529  0.20163118    -0.24070
H1204       H  0.88207118  0.33607180  0.14992096     0.14910
H1205       H  0.78301521  0.39566879  0.24634756     0.14930
C1206       C  0.81392592  0.45298193  0.19694530    -0.24020
H1207       H  0.87446338  0.27047167  0.17635163     0.05150
H1208       H  0.82743169  0.25816437  0.20051786     0.08370
H1209       H  0.87090284  0.27425790  0.23041842     0.08370
H1210       H  0.80060186  0.46134748  0.16704049     0.08360
H1211       H  0.84233904  0.47112286  0.20262679     0.08360
H1212       H  0.79184905  0.46142252  0.22089321     0.05130
C1213       C  0.23662106  0.35462479  0.22018430    -0.20670
C1214       C  0.22155492  0.32471607  0.19233316    -0.07240
C1215       C  0.20350634  0.33595443  0.15535527     0.13630
C1216       C  0.20161596  0.37716495  0.14671860    -0.20730
C1217       C  0.21714284  0.40693299  0.17434788    -0.07240
C1218       C  0.23438416  0.39598483  0.21160394     0.13620
C1219       C  0.25100317  0.42766102  0.24147321    -0.24070
H1220       H  0.25267562  0.34566902  0.24743525     0.14910
H1221       H  0.18686278  0.38634189  0.11861477     0.14930
C1222       C  0.18640752  0.30548468  0.12441144    -0.24020
H1223       H  0.26428445  0.41329438  0.26895547     0.05150
H1224       H  0.22627553  0.44828227  0.25142634     0.08370
H1225       H  0.27525169  0.44606474  0.22685086     0.08370
H1226       H  0.18920866  0.27322433  0.13405232     0.08360
H1227       H  0.20257574  0.30897522  0.09523876     0.08360
H1228       H  0.15355459  0.31155706  0.11915455     0.05130
C1229       C  0.19151290  0.73001957  0.14630629    -0.20670
C1230       C  0.18324356  0.69084057  0.16071862    -0.07240
C1231       C  0.20033264  0.67741588  0.19777125     0.13630
C1232       C  0.22419259  0.70456148  0.22052564    -0.20730
C1233       C  0.23305765  0.74358457  0.20607584    -0.07240
C1234       C  0.21714682  0.75664942  0.16836170     0.13620
C1235       C  0.22943261  0.79642140  0.14890509    -0.24070
H1236       H  0.17965330  0.73893060  0.11683824     0.14910
H1237       H  0.23790076  0.69469436  0.24885736     0.14930
C1238       C  0.19610960  0.63382609  0.21212694    -0.24020
H1239       H  0.20189606  0.81404392  0.14066482     0.05150
H1240       H  0.24630209  0.78971785  0.12056644     0.08370
H1241       H  0.24919254  0.81600075  0.16892994     0.08370
H1242       H  0.20738152  0.61221720  0.18851367     0.08360
H1243       H  0.16387906  0.62662476  0.21856125     0.08360
H1244       H  0.21385461  0.62869681  0.24058040     0.05130
C1245       C  0.31638639  0.72402134  0.17213121    -0.20670
C1246       C  0.31689511  0.71862117  0.21386312    -0.07240
C1247       C  0.34251080  0.68951953  0.23180609     0.13630
C1248       C  0.37209715  0.67105028  0.20776895    -0.20730
C1249       C  0.37501367  0.68127109  0.16672683    -0.07240
C1250       C  0.34525100  0.70644559  0.14810606     0.13620
C1251       C  0.34355596  0.71709919  0.10348439    -0.24070
H1252       H  0.29706545  0.74683303  0.15883390     0.14910
H1253       H  0.39306461  0.64931541  0.22084139     0.14930
C1254       C  0.33817140  0.67830701  0.27579400    -0.24020
H1255       H  0.31759198  0.73730144  0.09595518     0.05150
H1256       H  0.33870456  0.68919286  0.08452049     0.08370
H1257       H  0.37124775  0.73439082  0.09493502     0.08370
H1258       H  0.30732244  0.66497927  0.28040533     0.08360
H1259       H  0.34183030  0.70562850  0.29598447     0.08360
H1260       H  0.36108218  0.65534817  0.28503762     0.05130
C1261       C  0.43461955  0.81073669  0.21992615    -0.20670
C1262       C  0.42184769  0.83298142  0.18617702    -0.07240
C1263       C  0.38106252  0.83221522  0.17254280     0.13630
C1264       C  0.35332606  0.81036622  0.19438690    -0.20730
C1265       C  0.36485405  0.79012929  0.22990772    -0.07240
C1266       C  0.40609165  0.78892122  0.24236740     0.13620
C1267       C  0.42052801  0.76630110  0.27917091    -0.24070
H1268       H  0.46642560  0.81144317  0.22930754     0.14910
H1269       H  0.32145276  0.81221528  0.18573168     0.14930
C1270       C  0.36588982  0.85662285  0.13670035    -0.24020
H1271       H  0.43545289  0.78816048  0.30110090     0.05150
H1272       H  0.44292281  0.74282692  0.26986332     0.08370
H1273       H  0.39530087  0.75058934  0.29473741     0.08370
H1274       H  0.37963984  0.84516473  0.10814564     0.08360
H1275       H  0.37371212  0.88958026  0.14139049     0.08360
H1276       H  0.33227623  0.85409766  0.13260862     0.05130
C1277       C  0.14442947  0.76235507  0.27010026    -0.20670
C1278       C  0.15617966  0.73100045  0.29602277    -0.07240
C1279       C  0.19506026  0.73044381  0.31453870     0.13630
C1280       C  0.22161731  0.76181951  0.30659431    -0.20730
C1281       C  0.21234438  0.78994649  0.27617092    -0.07240
C1282       C  0.17276665  0.79222930  0.25945400     0.13620
C1283       C  0.16045133  0.82586872  0.23136777    -0.24070
H1284       H  0.11321846  0.76369494  0.25901581     0.14910
H1285       H  0.25236518  0.76030788  0.31904016     0.14930
C1286       C  0.20894128  0.69635293  0.34203262    -0.24020
H1287       H  0.12924330  0.82063664  0.21868591     0.05150
H1288       H  0.18168534  0.82814014  0.20587276     0.08370
H1289       H  0.16066161  0.85549023  0.24820659     0.08370
H1290       H  0.20645616  0.66652586  0.32538865     0.08360
H1291       H  0.19017823  0.69522780  0.36976888     0.08360
H1292       H  0.24120367  0.70054780  0.35210165     0.05130
C1293       C  0.20102320  0.33846244  0.84685083    -0.20670
C1294       C  0.20294449  0.37861068  0.83255918    -0.07240
C1295       C  0.23544287  0.39100830  0.80787794     0.13630
C1296       C  0.26363879  0.36203190  0.79543274    -0.20730
C1297       C  0.25898734  0.32062199  0.80547271    -0.07240
C1298       C  0.22870334  0.30907513  0.83335567     0.13620
C1299       C  0.22499260  0.26625230  0.84926192    -0.24070
H1300       H  0.17768606  0.33000825  0.86829314     0.14910
H1301       H  0.28640727  0.37093830  0.77369771     0.14930
C1302       C  0.23978052  0.43461846  0.79375654    -0.24020
H1303       H  0.23168106  0.26680021  0.88244856     0.05150
H1304       H  0.24625737  0.24480345  0.83431626     0.08370
H1305       H  0.19346446  0.25440620  0.84460667     0.08370
H1306       H  0.24361057  0.45578086  0.82035224     0.08360
H1307       H  0.21219437  0.44317368  0.77606205     0.08360
H1308       H  0.26666065  0.43870921  0.77399049     0.05130
C1309       C  0.28308213  0.65302991  0.74522855    -0.20670
C1310       C  0.25985737  0.68732874  0.73476353    -0.07240
C1311       C  0.21693030  0.68470431  0.73576953     0.13630
C1312       C  0.19949314  0.65261283  0.75594076    -0.20730
C1313       C  0.22364311  0.62389326  0.77595903    -0.07240
C1314       C  0.26534272  0.62124995  0.76714431     0.13620
C1315       C  0.29077518  0.58574892  0.78075936    -0.24070
H1316       H  0.31555508  0.65314961  0.74011133     0.14910
H1317       H  0.16696123  0.65380634  0.76095338     0.14930
C1318       C  0.18888742  0.71800631  0.72191894    -0.24020
H1319       H  0.32233447  0.58811634  0.76916926     0.05150
H1320       H  0.27695357  0.55666173  0.76882942     0.08370
H1321       H  0.29291930  0.58448986  0.81432212     0.08370
H1322       H  0.19327250  0.72492130  0.68960499     0.08360
H1323       H  0.19507479  0.74517380  0.74094063     0.08360
H1324       H  0.15613946  0.70992366  0.72533676     0.05130
C1325       C  0.28394366  0.69486531  0.65192362    -0.20670
C1326       C  0.27283659  0.73629702  0.65704735    -0.07240
C1327       C  0.24864724  0.75107413  0.62552781     0.13630
C1328       C  0.21690072  0.72562741  0.61237289    -0.20730
C1329       C  0.21758557  0.68303403  0.62084423    -0.07240
C1330       C  0.25448556  0.66689454  0.63608269     0.13620
C1331       C  0.26284820  0.62164125  0.63595111    -0.24070
H1332       H  0.31017998  0.68335026  0.66825597     0.14910
H1333       H  0.19319031  0.73926019  0.59404743     0.14930
C1334       C  0.26788356  0.77609361  0.59272106    -0.24020
H1335       H  0.29455484  0.61556858  0.64623563     0.05150
H1336       H  0.25889830  0.60897251  0.60459008     0.08370
H1337       H  0.24232069  0.60512833  0.65658745     0.08370
H1338       H  0.29760466  0.78963671  0.60281030     0.08360
H1339       H  0.24676126  0.80033651  0.58273902     0.08360
H1340       H  0.27425065  0.75610133  0.56591584     0.05130
C1341       C  0.36447655  0.80799729  0.79542767    -0.20670
C1342       C  0.32311473  0.80781475  0.80510451    -0.07240
C1343       C  0.30845686  0.83409693  0.83598117     0.13630
C1344       C  0.33546492  0.86221992  0.85449491    -0.20730
C1345       C  0.37596960  0.86439371  0.84205091    -0.07240
C1346       C  0.39117340  0.83619341  0.81337162     0.13620
C1347       C  0.43542462  0.83601256  0.80131921    -0.24070
H1348       H  0.37530126  0.78838018  0.77113968     0.14910
H1349       H  0.32493679  0.88272312  0.87831590     0.14930
C1350       C  0.26495500  0.83316458  0.84990883    -0.24020
H1351       H  0.44174867  0.81130023  0.77871172     0.05150
H1352       H  0.45509225  0.83096030  0.82847633     0.08370
H1353       H  0.44377581  0.86570206  0.78749625     0.08370
H1354       H  0.24576581  0.81096923  0.83214991     0.08360
H1355       H  0.25146555  0.86403676  0.84730520     0.08360
H1356       H  0.26422615  0.82440780  0.88237505     0.05130
C1357       C  0.30796797  0.91754146  0.70923989    -0.20670
C1358       C  0.33804339  0.90560557  0.68193347    -0.07240
C1359       C  0.35332476  0.86558445  0.68143917     0.13630
C1360       C  0.33675447  0.83746537  0.70748455    -0.20730
C1361       C  0.30387000  0.84788938  0.73222392    -0.07240
C1362       C  0.29015317  0.88864275  0.73448979     0.13620
C1363       C  0.25649930  0.90203885  0.76189894    -0.24070
H1364       H  0.29798910  0.94910129  0.71024434     0.14910
H1365       H  0.34657969  0.80587027  0.70553738     0.14930
C1366       C  0.38595446  0.85204945  0.65234120    -0.24020
H1367       H  0.26832807  0.92567226  0.78384576     0.05150
H1368       H  0.24402101  0.87621239  0.77923225     0.08370
H1369       H  0.23142490  0.91532872  0.74356866     0.08370
H1370       H  0.41456745  0.86970538  0.65835591     0.08360
H1371       H  0.37554663  0.85703463  0.62054645     0.08360
H1372       H  0.39297318  0.81900845  0.65540903     0.05130
C1373       C  0.33471510  0.69775313  0.86317431    -0.20670
C1374       C  0.37378506  0.68721156  0.84994490    -0.07240
C1375       C  0.38533033  0.69242673  0.80954370     0.13630
C1376       C  0.35733592  0.70936583  0.78289703    -0.20730
C1377       C  0.31862058  0.72071348  0.79636870    -0.07240
C1378       C  0.30650235  0.71398756  0.83643693     0.13620
C1379       C  0.26442877  0.72341515  0.85154043    -0.24070
H1380       H  0.32609344  0.69255908  0.89444101     0.14910
H1381       H  0.36590590  0.71505330  0.75172487     0.14930
C1382       C  0.42671187  0.68010540  0.79480466    -0.24020
H1383       H  0.25022724  0.69516371  0.86357809     0.05150
H1384       H  0.24393201  0.73489877  0.82728640     0.08370
H1385       H  0.26659292  0.74669859  0.87647465     0.08370
H1386       H  0.43106466  0.64682750  0.79960205     0.08360
H1387       H  0.45073268  0.69770430  0.81186783     0.08360
H1388       H  0.43030228  0.68618176  0.76189494     0.05130
C1389       C  0.17371711  0.86761489  0.69272843    -0.20670
C1390       C  0.18784913  0.88529419  0.65718373    -0.07240
C1391       C  0.22477539  0.87150143  0.63973446     0.13630
C1392       C  0.24579563  0.84060364  0.65838734    -0.20730
C1393       C  0.23015867  0.82039121  0.69141788    -0.07240
C1394       C  0.19497484  0.83597588  0.71089698     0.13620
C1395       C  0.18038647  0.82288580  0.75209028    -0.24070
H1396       H  0.14566110  0.87837752  0.70608335     0.14910
H1397       H  0.27600605  0.83336845  0.64833475     0.14930
C1398       C  0.24215839  0.88671121  0.60054993    -0.24020
H1399       H  0.17493980  0.85037539  0.77155516     0.05150
H1400       H  0.20277547  0.80443098  0.76891798     0.08370
H1401       H  0.15117357  0.80559321  0.74855989     0.08370
H1402       H  0.24863306  0.91993256  0.60324725     0.08360
H1403       H  0.22078497  0.87931333  0.57505528     0.08360
H1404       H  0.27145345  0.87197444  0.59280976     0.05130
C1405       C  0.25777320  0.84570058  0.34267333    -0.20670
C1406       C  0.26074028  0.85736514  0.30205763    -0.07240
C1407       C  0.23388731  0.88651888  0.28590691     0.13630
C1408       C  0.20055341  0.89825765  0.30885850    -0.20730
C1409       C  0.19409014  0.88103502  0.34687819    -0.07240
C1410       C  0.22387031  0.85611938  0.36499505     0.13620
C1411       C  0.21975389  0.84003186  0.40760676    -0.24070
H1412       H  0.27833186  0.82322923  0.35492473     0.14910
H1413       H  0.17924193  0.92042877  0.29711355     0.14930
C1414       C  0.23898622  0.90308300  0.24371174    -0.24020
H1415       H  0.24627321  0.82123065  0.41667394     0.05150
H1416       H  0.19200367  0.82039600  0.40942236     0.08370
H1417       H  0.21769068  0.86593522  0.42976972     0.08370
H1418       H  0.23921481  0.87789039  0.22068761     0.08360
H1419       H  0.26796183  0.92066957  0.24222706     0.08360
H1420       H  0.21390439  0.92406541  0.23545948     0.05130
C1421       C  0.88491490  0.34512965  0.84385562    -0.20670
C1422       C  0.87878411  0.38697332  0.83958915    -0.07240
C1423       C  0.85395779  0.40279717  0.80845376     0.13630
C1424       C  0.83443258  0.37555617  0.78231705    -0.20730
C1425       C  0.83902150  0.33352683  0.78726769    -0.07240
C1426       C  0.86485055  0.31760266  0.81769924     0.13620
C1427       C  0.87044164  0.27213540  0.82356034    -0.24070
H1428       H  0.90503982  0.33426325  0.86767969     0.14910
H1429       H  0.81325948  0.38695072  0.75973112     0.14930
C1430       C  0.84732096  0.44822192  0.80325402    -0.24020
H1431       H  0.88846433  0.26598851  0.85159933     0.05150
H1432       H  0.88710519  0.25852302  0.79785298     0.08370
H1433       H  0.84071325  0.25603605  0.82611092     0.08370
H1434       H  0.87672427  0.46402253  0.79734585     0.08360
H1435       H  0.83360808  0.46151066  0.83109520     0.08360
H1436       H  0.82642929  0.45446283  0.77726764     0.05130
C1437       C  0.81974758  0.82483699  0.39828301    -0.20670
C1438       C  0.84583472  0.85167612  0.37807987    -0.07240
C1439       C  0.84449077  0.85592964  0.33592831     0.13630
C1440       C  0.81645038  0.83258335  0.31427600    -0.20730
C1441       C  0.79006760  0.80531806  0.33378282    -0.07240
C1442       C  0.79188851  0.80065597  0.37621259     0.13620
C1443       C  0.76690701  0.76944336  0.39845398    -0.24070
H1444       H  0.82181032  0.82226278  0.43109228     0.14910
H1445       H  0.81700265  0.83351964  0.28151865     0.14930
C1446       C  0.87343681  0.88384805  0.31378296    -0.24020
H1447       H  0.74700818  0.78527023  0.42058952     0.05150
H1448       H  0.78754022  0.74862303  0.41512982     0.08370
H1449       H  0.74754481  0.75022842  0.37774609     0.08370
H1450       H  0.90536785  0.87486551  0.32030143     0.08360
H1451       H  0.86907220  0.91611187  0.32383014     0.08360
H1452       H  0.86838712  0.88219578  0.28030369     0.05130
C1453       C  0.35813089  0.81480216  0.34079473    -0.20670
C1454       C  0.34599283  0.83374723  0.30464250    -0.07240
C1455       C  0.36168552  0.87200646  0.29370412     0.13630
C1456       C  0.38818986  0.89149445  0.32039098    -0.20730
C1457       C  0.39847830  0.87426334  0.35811410    -0.07240
C1458       C  0.38410740  0.83517210  0.36832618     0.13620
C1459       C  0.39480375  0.81506757  0.40786317    -0.24070
H1460       H  0.34607247  0.78472874  0.34805613     0.14910
H1461       H  0.39848069  0.92207570  0.31272506     0.14930
C1462       C  0.35064310  0.89390712  0.25508680    -0.24020
H1463       H  0.40954128  0.78522574  0.40150785     0.05150
H1464       H  0.36662945  0.80958927  0.42538866     0.08370
H1465       H  0.41616216  0.83400639  0.42692934     0.08370
H1466       H  0.32804392  0.87709777  0.23575890     0.08360
H1467       H  0.37846431  0.89880194  0.23692422     0.08360
H1468       H  0.33777604  0.92429388  0.26290313     0.05130
C1469       C  0.83920454  0.39676269  0.35452720    -0.20670
C1470       C  0.87912445  0.38339857  0.35063872    -0.07240
C1471       C  0.88885469  0.34776182  0.32825581     0.13630
C1472       C  0.85746639  0.32571580  0.31003228    -0.20730
C1473       C  0.81764049  0.33950182  0.31275112    -0.07240
C1474       C  0.80774820  0.37489724  0.33539027     0.13620
C1475       C  0.76490145  0.39047157  0.33938278    -0.24070
H1476       H  0.83280014  0.42431351  0.37207216     0.14910
H1477       H  0.86386172  0.29772893  0.29353198     0.14930
C1478       C  0.93210755  0.33330742  0.32306285    -0.24020
H1479       H  0.75634364  0.39089278  0.37194051     0.05150
H1480       H  0.74203744  0.37150795  0.32230334     0.08370
H1481       H  0.76335602  0.42211779  0.32760438     0.08370
H1482       H  0.94571161  0.32558830  0.35300040     0.08360
H1483       H  0.95072246  0.35768378  0.30883907     0.08360
H1484       H  0.93348704  0.30544994  0.30324724     0.05130
C1485       C  0.36045401  0.32190965  0.87061103    -0.20670
C1486       C  0.37348439  0.36082183  0.85873219    -0.07240
C1487       C  0.37497623  0.37179373  0.81781461     0.13630
C1488       C  0.36069503  0.34369766  0.78896968    -0.20730
C1489       C  0.34459866  0.30599627  0.80109768    -0.07240
C1490       C  0.34621958  0.29379460  0.84183677     0.13620
C1491       C  0.33304911  0.25200002  0.85570511    -0.24070
H1492       H  0.36177474  0.31351443  0.90241560     0.14910
H1493       H  0.35908288  0.35222817  0.75724359     0.14930
C1494       C  0.39112589  0.41293985  0.80492340    -0.24020
H1495       H  0.35944296  0.23647082  0.86993731     0.05150
H1496       H  0.32150452  0.23221401  0.83039236     0.08370
H1497       H  0.30870941  0.25507804  0.87859743     0.08370
H1498       H  0.42330652  0.41684815  0.81529050     0.08360
H1499       H  0.37253167  0.43769194  0.81853898     0.08360
H1500       H  0.39002976  0.41608198  0.77134568     0.05130
C1501       C  0.81192280  0.81371236  0.63969485    -0.20670
C1502       C  0.81453368  0.81155064  0.68193412    -0.07240
C1503       C  0.84503993  0.83385291  0.70414877     0.13630
C1504       C  0.87081809  0.85999030  0.68326458    -0.20730
C1505       C  0.86658242  0.86363328  0.64131842    -0.07240
C1506       C  0.83760343  0.83991089  0.61892420     0.13620
C1507       C  0.83384763  0.84220475  0.57321424    -0.24070
H1508       H  0.78960486  0.79510322  0.62305351     0.14910
H1509       H  0.89420074  0.87762355  0.69964376     0.14930
C1510       C  0.85179938  0.83039723  0.74940581    -0.24020
H1511       H  0.80959218  0.82125952  0.56087752     0.05150
H1512       H  0.86305158  0.83337968  0.55906666     0.08370
H1513       H  0.82612697  0.87387051  0.56428394     0.08370
H1514       H  0.88255013  0.81784496  0.75544505     0.08360
H1515       H  0.82910163  0.81024375  0.76384626     0.08360
H1516       H  0.85029460  0.86121397  0.76409202     0.05130
C1517       C  0.81704306  0.71662015  0.79187761    -0.20670
C1518       C  0.79372715  0.69641074  0.76140458    -0.07240
C1519       C  0.79669272  0.65375948  0.75550571     0.13630
C1520       C  0.82294271  0.63209199  0.78102719    -0.20730
C1521       C  0.84560299  0.65264556  0.81174917    -0.07240
C1522       C  0.84284407  0.69524792  0.81730374     0.13620
C1523       C  0.86732834  0.71817925  0.84973911    -0.24070
H1524       H  0.81483090  0.74952822  0.79574355     0.14910
H1525       H  0.82568328  0.59918590  0.77713038     0.14930
C1526       C  0.77294509  0.63071443  0.72288509    -0.24020
H1527       H  0.86168592  0.75167710  0.84917457     0.05150
H1528       H  0.90035923  0.71335003  0.84493556     0.08370
H1529       H  0.85897863  0.70701155  0.88026171     0.08370
H1530       H  0.79438183  0.61556913  0.70174294     0.08360
H1531       H  0.75298328  0.65096355  0.70492234     0.08360
H1532       H  0.75342485  0.60700620  0.73701508     0.05130
C1533       C  0.73021196  0.82539846  0.81114316    -0.20670
C1534       C  0.70654473  0.80626266  0.78022285    -0.07240
C1535       C  0.66470828  0.81381013  0.77631531     0.13630
C1536       C  0.64794061  0.84316496  0.80187783    -0.20730
C1537       C  0.67223920  0.86388948  0.83116904    -0.07240
C1538       C  0.71341355  0.85461356  0.83673246     0.13620
C1539       C  0.73949628  0.87621778  0.86867822    -0.24070
H1540       H  0.76246201  0.81883825  0.81373299     0.14910
H1541       H  0.61567352  0.84971490  0.79935041     0.14930
C1542       C  0.63731799  0.79168145  0.74592287    -0.24020
H1543       H  0.77147650  0.86547668  0.86814499     0.05150
H1544       H  0.72715184  0.87034995  0.89933401     0.08370
H1545       H  0.73967631  0.90972323  0.86321763     0.08370
H1546       H  0.62390779  0.81405899  0.72463558     0.08360
H1547       H  0.61232878  0.77592860  0.76217587     0.08360
H1548       H  0.65357044  0.76809992  0.72806136     0.05130
C1549       C  0.71068615  0.89784420  0.67452898    -0.20670
C1550       C  0.72749158  0.92954401  0.69922165    -0.07240
C1551       C  0.75239446  0.92076925  0.73277356     0.13630
C1552       C  0.76094684  0.87978282  0.74032615    -0.20730
C1553       C  0.74408625  0.84838851  0.71532096    -0.07240
C1554       C  0.71864604  0.85732410  0.68220427     0.13620
C1555       C  0.69958340  0.82431355  0.65508691    -0.24070
H1556       H  0.69069424  0.90492453  0.64919886     0.14910
H1557       H  0.78021748  0.87227351  0.76593834     0.14930
C1558       C  0.76928822  0.95430801  0.76027785    -0.24020
H1559       H  0.68016907  0.83733955  0.63069556     0.05150
H1560       H  0.68026280  0.80369618  0.67318237     0.08370
H1561       H  0.72343463  0.80587574  0.64033069     0.08370
H1562       H  0.74384272  0.97161486  0.77401006     0.08360
H1563       H  0.78846568  0.97556591  0.74246680     0.08360
H1564       H  0.78826991  0.94181151  0.78529757     0.05130
C1565       C  0.84451899  0.68009411  0.63085429    -0.20670
C1566       C  0.88356402  0.68295125  0.64800370    -0.07240
C1567       C  0.89220481  0.70775979  0.68270706     0.13630
C1568       C  0.86047744  0.72814376  0.70066947    -0.20730
C1569       C  0.82122941  0.72444813  0.68428341    -0.07240
C1570       C  0.81274835  0.70106463  0.64878811     0.13620
C1571       C  0.77098148  0.69804546  0.62919729    -0.24070
H1572       H  0.83902293  0.66175771  0.60347656     0.14910
H1573       H  0.86603532  0.74663048  0.72788401     0.14930
C1574       C  0.93470109  0.71345589  0.70043578    -0.24020
H1575       H  0.77242570  0.70962629  0.59767551     0.05150
H1576       H  0.74780350  0.71609443  0.64564857     0.08370
H1577       H  0.76065584  0.66551615  0.62807521     0.08370
H1578       H  0.95555967  0.72505058  0.67681654     0.08360
H1579       H  0.94614133  0.68399713  0.71214501     0.08360
H1580       H  0.93541903  0.73587288  0.72625377     0.05130
C1581       C  0.66473062  0.66962512  0.80776272    -0.20670
C1582       C  0.67692726  0.67845097  0.84780223    -0.07240
C1583       C  0.70817248  0.70719054  0.85716385     0.13630
C1584       C  0.72659480  0.72700991  0.82559555    -0.20730
C1585       C  0.71403686  0.71918618  0.78548285    -0.07240
C1586       C  0.68337284  0.68986936  0.77593500     0.13620
C1587       C  0.66969987  0.67959770  0.73299015    -0.24070
H1588       H  0.64066825  0.64724361  0.80149902     0.14910
H1589       H  0.75106449  0.74869751  0.83222321     0.14930
C1590       C  0.72195577  0.71730716  0.90030907    -0.24020
H1591       H  0.63671152  0.68604490  0.72948486     0.05150
H1592       H  0.67470412  0.64653903  0.72656084     0.08370
H1593       H  0.68626947  0.69745856  0.70990728     0.08370
H1594       H  0.73414137  0.68955275  0.91499569     0.08360
H1595       H  0.69603194  0.72918282  0.91813275     0.08360
H1596       H  0.74646829  0.74111271  0.90136145     0.05130
loop_ 
_geom_bond_atom_site_label_1 
_geom_bond_atom_site_label_2 
_geom_bond_distance 
_geom_bond_site_symmetry_2 
_ccdc_geom_bond_type 
C1            C2   1.392       .  A
C1            C6   1.394       .  A
C1         C1582   1.432       .  S
C2            C3   1.385       .  A
C2            H7   1.085       .  S
C3            C4   1.433       .  A
C3          C378   1.502       .  S
C4            C5   1.434       .  A
C4            H8   1.078       .  S
C5            C6   1.385       .  A
C5          C421   1.502       .  S
C6            H9   1.085       .  S
C10          C11   1.392       .  A
C10          C15   1.390       .  A
C10        C1566   1.431       .  S
C11          C12   1.386       .  A
C11          H16   1.085       .  S
C12          C13   1.426       .  A
C12         C142   1.489       .  S
C13          C14   1.427       .  A
C13          H17   1.081   1_655  S
C14          C15   1.382       .  A
C14         C185   1.487       .  S
C15          H18   1.086       .  S
C19          C20   1.388       .  A
C19          C24   1.388       .  A
C19        C1550   1.453       .  S
C20          C21   1.401       .  A
C20          H25   1.084       .  S
C21          C22   1.431       .  A
C21         C596   1.501       .  S
C22          C23   1.433       .  A
C22          H26   1.081       .  S
C23          C24   1.399       .  A
C23         C639   1.498       .  S
C24          H27   1.084       .  S
C28          C29   1.392       .  A
C28          C33   1.395       .  A
C28        C1585   1.450       .  S
C29          C30   1.390       .  A
C29        C1518   1.473       .  S
C30          C31   1.388       .  A
C30        C1569   1.440       .  S
C31          C32   1.384       .  A
C31        C1502   1.462       .  S
C32          C33   1.391       .  A
C32        C1553   1.458       .  S
C33        C1534   1.456       .  S
C34          C35   1.378       .  A
C34          C39   1.427       .  A
C34         C521   1.485       .  S
C35          C36   1.377       .  A
C35          H40   1.086       .  S
C36          C37   1.384       .  A
C36        C1486   1.424       .  S
C37          C38   1.390       .  A
C37          H41   1.085       .  S
C38          C39   1.431       .  A
C38         C293   1.488       .  S
C39          H42   1.076       .  S
C43          C44   1.383       .  A
C43          C48   1.385       .  A
C43        C1470   1.423       .  S
C44          C45   1.382       .  A
C44          H49   1.086       .  S
C45          C46   1.430       .  A
C45         C749   1.494       .  S
C46          C47   1.434       .  A
C46          H50   1.074   1_655  S
C47          C48   1.384       .  A
C47         C303   1.493       .  S
C48          H51   1.085       .  S
C52          C53   1.394       .  A
C52          C57   1.403       .  A
C52        C1457   1.447       .  S
C53          C54   1.386       .  A
C53          H58   1.086       .  S
C54          C55   1.419       .  A
C54         C511   1.480       .  S
C55          C56   1.423       .  A
C55          H59   1.078   1_565  S
C56          C57   1.394       .  A
C56         C701   1.489       .  S
C57          H60   1.084       .  S
C61          C62   1.376       .  A
C61          C66   1.381       .  A
C61        C1438   1.423       .  S
C62          C63   1.379       .  A
C62          H67   1.085       .  S
C63          C64   1.445       .  A
C63         C640   1.497       .  S
C64          C65   1.439       .  A
C64          H68   1.077       .  S
C65          C66   1.391       .  A
C65         C143   1.510       .  S
C66          H69   1.085       .  S
C70          C71   1.392       .  A
C70          C75   1.440       .  A
C70         C642   1.506       .  S
C71          C72   1.388       .  A
C71          H76   1.085       .  S
C72          C73   1.386       .  A
C72        C1505   1.443       .  S
C73          C74   1.391       .  A
C73          H77   1.085       .  S
C74          C75   1.434       .  A
C74         C140   1.508       .  S
C75          H78   1.076       .  S
C79          C80   1.386       .  A
C79          C84   1.381       .  A
C79        C1422   1.422       .  S
C80          C81   1.386       .  A
C80          H85   1.086       .  S
C81          C82   1.430       .  A
C81         C379   1.493       .  S
C82          C83   1.430       .  A
C82          H86   1.066       .  S
C83          C84   1.380       .  A
C83         C186   1.492       .  S
C84          H87   1.086       .  S
C88          C89   1.398       .  A
C88          C93   1.444       .  A
C88         C376   1.521       .  S
C89          C90   1.385       .  A
C89          H94   1.084       .  S
C90          C91   1.384       .  A
C90        C1521   1.452       .  S
C91          C92   1.398       .  A
C91          H95   1.084       .  S
C92          C93   1.445       .  A
C92         C188   1.519       .  S
C93          H96   1.079       .  S
C97          C98   1.445       .  A
C97         C102   1.397       .  A
C97         C124   1.519       .  S
C98          C99   1.437       .  A
C98         H103   1.079       .  S
C99         C100   1.374       .  A
C99         C703   1.507       .  S
C100        C101   1.385       .  A
C100        H104   1.087       .  S
C101        C102   1.402       .  A
C101       C1409   1.440       .  S
C102        H105   1.084       .  S
C106        C107   1.388       .  A
C106        C111   1.431       .  A
C106        C126   1.505       .  S
C107        C108   1.396       .  A
C107        H112   1.084       .  S
C108        C109   1.395       .  A
C108       C1390   1.457       .  S
C109        C110   1.391       .  A
C109        H113   1.085       .  S
C110        C111   1.432       .  A
C110        C719   1.497       .  S
C111        H114   1.070       .  S
O115        C123   1.266       .  A
O115       Co135   2.042       .  S
O116        C124   1.289       .  A
O116       Co136   2.103       .  S
O117        C125   1.270       .  A
O117       Co137   1.979       .  S
O118        C126   1.263       .  A
O118       Co138   1.983       .  S
O119        C125   1.267       .  A
O119       Co136   1.992       .  S
O120        C126   1.284       .  A
O120       Co135   2.074       .  S
O121        C124   1.264       .  A
O121       Co138   1.982       .  S
O122        C123   1.267       .  A
O122       Co137   1.964       .  S
C123        C172   1.509       .  S
C125        C244   1.492       .  S
O127        C140   1.298       .  A
O127       Co135   2.089   1_655  S
O128        C141   1.286       .  A
O128       Co136   2.024   1_655  S
O129        C142   1.261   1_455  A
O129       Co137   2.002       .  S
O130        C143   1.262   1_455  A
O130       Co138   1.984       .  S
O131        C143   1.292       .  A
O131       Co136   2.067   1_655  S
O132        C142   1.275       .  A
O132       Co135   1.999   1_655  S
O133        C140   1.263   1_455  A
O133       Co138   1.961       .  S
O134        C141   1.257   1_455  A
O134       Co137   1.997       .  S
Co135       O139   2.176       .  S
Co136       O139   2.133       .  S
Co137       O139   2.160       .  S
Co138       O139   1.975       .  S
C141        C391   1.502       .  S
C144        C145   1.384       .  A
C144        C149   1.434       .  A
C144        C274   1.506       .  S
C145        C146   1.383       .  A
C145        H150   1.086       .  S
C146        C147   1.390       .  A
C146       C1374   1.441       .  S
C147        C148   1.396       .  A
C147        H151   1.084       .  S
C148        C149   1.440       .  A
C148        C423   1.509       .  S
C149        H152   1.080       .  S
C153        C154   1.396       .  A
C153        C158   1.440       .  A
C153        C720   1.516       .  S
C154        C155   1.387       .  A
C154        H159   1.076       .  S
C155        C156   1.376       .  A
C155       C1358   1.437       .  S
C156        C157   1.383       .  A
C156        H160   1.086       .  S
C157        C158   1.444       .  A
C157        C595   1.503       .  S
C158        H161   1.082       .  S
C162        C163   1.393       .  A
C162        C167   1.422       .  A
C162       C1393   1.454       .  S
C163        C164   1.385       .  A
C163       C1361   1.468       .  S
C164        C165   1.398       .  A
C164       C1342   1.467       .  S
C165        C166   1.403       .  A
C165       C1377   1.447       .  S
C166        C167   1.399       .  A
C166       C1310   1.474       .  S
C167       C1326   1.518       .  S
C168        C169   1.414       .  A
C168        C173   1.391       .  A
C168       C1329   1.485       .  S
C169        C170   1.407       .  A
C169        H174   1.078       .  S
C170        C171   1.436       .  A
C170        C204   1.517       .  S
C171        C172   1.433       .  A
C171        H175   1.082       .  S
C172        C173   1.391       .  A
C173        H176   1.085       .  S
O177        C185   1.277       .  A
O177       Co197   2.010   1_655  S
O178        C186   1.300       .  A
O178       Co198   2.100   1_655  S
O179        C187   1.268   1_455  A
O179       Co199   2.027       .  S
O180        C188   1.269   1_455  A
O180       Co200   1.989       .  S
O181        C187   1.289       .  A
O181       Co198   2.018   1_655  S
O182        C188   1.296       .  A
O182       Co197   2.090   1_655  S
O183        C186   1.261   1_455  A
O183       Co200   1.946       .  S
O184        C185   1.255   1_455  A
O184       Co199   1.982       .  S
C187        C611   1.518       .  S
O189        C202   1.283       .  A
O189       Co197   2.069       .  S
O190        C203   1.259       .  A
O190       Co198   1.969       .  S
O191        C204   1.271       .  A
O191       Co199   1.997       .  S
O192        C205   1.268       .  A
O192       Co200   2.010       .  S
O193        C205   1.278       .  A
O193       Co198   2.069       .  S
O194        C204   1.270       .  A
O194       Co197   2.044       .  S
O195        C202   1.256       .  A
O195       Co200   1.960       .  S
O196        C203   1.265       .  A
O196       Co199   1.975       .  S
Co197       O201   2.160       .  S
Co198       O201   2.158       .  S
Co199       O201   2.169       .  S
Co200       O201   1.985       .  S
C202        C217   1.481       .  S
C203        C760   1.477       .  S
C205        C206   1.518       .  S
C206        C207   1.408       .  A
C206        C211   1.436       .  A
C207        C208   1.408       .  A
C207        H212   1.084       .  S
C208        C209   1.389       .  A
C208       C1294   1.459       .  S
C209        C210   1.382       .  A
C209        H213   1.086       .  S
C210        C211   1.428       .  A
C210        C292   1.494       .  S
C211        H214   1.082       .  S
C215        C216   1.380       .  A
C215        C220   1.399       .  A
C215       C1313   1.462       .  S
C216        C217   1.378       .  A
C216        H221   1.088       .  S
C217        C218   1.434       .  A
C218        C219   1.437       .  A
C218        H222   1.082       .  S
C219        C220   1.407       .  A
C219        C276   1.510       .  S
C220        H223   1.082       .  S
C224        C225   1.397       .  A
C224        C229   1.388       .  A
C224       C1345   1.444       .  S
C225        C226   1.394       .  A
C225        H230   1.084       .  S
C226        C227   1.436       .  A
C226        C597   1.505       .  S
C227        C228   1.425       .  A
C227        H231   1.071       .  S
C228        C229   1.388       .  A
C228        C422   1.503       .  S
C229        H232   1.085       .  S
C233        C234   1.389       .  A
C233        C238   1.427       .  A
C233        C424   1.498       .  S
C234        C235   1.384       .  A
C234        H239   1.085       .  S
C235        C236   1.387       .  A
C235       C1537   1.438       .  S
C236        C237   1.391       .  A
C236        H240   1.085       .  S
C237        C238   1.432       .  A
C237        C594   1.494       .  S
C238        H241   1.076       .  S
C242        C243   1.448       .  A
C242        C247   1.393       .  A
C242        C320   1.512       .  S
C243        C244   1.445       .  A
C243        H248   1.080       .  S
C244        C245   1.373       .  A
C245        C246   1.374       .  A
C245        H249   1.089       .  S
C246        C247   1.381       .  A
C246       C1278   1.419       .  S
C247        H250   1.082       .  S
C251        C252   1.395       .  A
C251        C256   1.385       .  A
C251       C1454   1.439       .  S
C252        C253   1.397       .  A
C252       C1406   1.462       .  S
C253        C254   1.395       .  A
C253       C1281   1.457       .  S
C254        C255   1.401       .  A
C254       C1233   1.462       .  S
C255        C256   1.391       .  A
C255       C1246   1.458       .  S
C256       C1265   1.464       .  S
C257        C258   1.389       .  A
C257        C262   1.434       .  A
C257        C277   1.496       .  S
C258        C259   1.384       .  A
C258        H263   1.086       .  S
C259        C260   1.394       .  A
C259       C1249   1.446       .  S
C260        C261   1.394       .  A
C260        H264   1.085       .  S
C261        C262   1.434       .  A
C261        C439   1.498       .  S
C262        H265   1.074       .  S
O266        C274   1.262       .  A
O266       Co286   2.005   1_556  S
O267        C275   1.282       .  A
O267       Co287   2.046   1_554  S
O268        C276   1.272       .  A
O268       Co288   1.998       .  S
O269        C277   1.278       .  A
O269       Co289   2.031       .  S
O270        C276   1.265       .  A
O270       Co287   2.004       .  S
O271        C277   1.270       .  A
O271       Co286   2.016       .  S
O272        C275   1.284       .  A
O272       Co289   2.050       .  S
O273        C274   1.274       .  A
O273       Co288   2.038       .  S
C275        C789   1.512       .  S
O278        C291   1.263       .  A
O278       Co286   1.962       .  S
O279        C292   1.263       .  A
O279       Co287   1.891       .  S
O280        C293   1.298       .  A
O280       Co288   2.085       .  S
O281        C294   1.262       .  A
O281       Co289   1.990       .  S
O282        C294   1.257       .  A
O282       Co287   2.027   1_554  S
O283        C293   1.264       .  A
O283       Co286   1.939   1_556  S
O284        C291   1.301       .  A
O284       Co289   2.115       .  S
O285        C292   1.312       .  A
O285       Co288   2.130       .  S
Co286       O290   1.945       .  S
Co287       O290   2.045   1_556  S
Co288       O290   2.184   1_556  S
Co289       O290   2.126       .  S
C291        C798   1.517       .  S
C294        C326   1.496       .  S
O295        C303   1.264   1_455  A
O295       Co315   1.917       .  S
O296        C304   1.248       .  A
O296       Co316   2.006       .  S
O297        C305   1.314       .  A
O297       Co317   2.126       .  S
O298        C306   1.303       .  A
O298       Co318   2.128       .  S
O299        C305   1.262       .  A
O299       Co316   1.901   1_655  S
O300        C306   1.267       .  A
O300       Co315   1.961       .  S
O301        C304   1.265       .  A
O301       Co318   1.986       .  S
O302        C303   1.309       .  A
O302       Co317   2.127       .  S
C304        C328   1.492       .  S
C305        C335   1.502       .  S
C306        C816   1.520       .  S
O307        C320   1.273       .  A
O307       Co315   2.032       .  S
O308        C321   1.270   1_455  A
O308       Co316   1.986       .  S
O309        C322   1.281       .  A
O309       Co317   2.048       .  S
O310        C323   1.287       .  A
O310       Co318   2.043       .  S
O311        C323   1.290       .  A
O311       Co316   2.040       .  S
O312        C322   1.269   1_455  A
O312       Co315   2.017       .  S
O313        C320   1.278       .  A
O313       Co318   2.032       .  S
O314        C321   1.285       .  A
O314       Co317   2.048       .  S
Co315       O319   1.935       .  S
Co316       O319   2.024       .  S
Co317       O319   2.182   1_655  S
Co318       O319   2.118       .  S
C321        C346   1.511       .  S
C322        C389   1.519       .  S
C323        C791   1.506       .  S
C324        C325   1.383       .  A
C324        C329   1.382       .  A
C324       C1217   1.439       .  S
C325        C326   1.395       .  A
C325        H330   1.085       .  S
C326        C327   1.430       .  A
C327        C328   1.431       .  A
C327        H331   1.078       .  S
C328        C329   1.390       .  A
C329        H332   1.085       .  S
C333        C334   1.435       .  A
C333        C338   1.394       .  A
C333        C360   1.507       .  S
C334        C335   1.434       .  A
C334        H339   1.075       .  S
C335        C336   1.384       .  A
C336        C337   1.390       .  A
C336        H340   1.086       .  S
C337        C338   1.395       .  A
C337       C1198   1.441       .  S
C338        H341   1.085       .  S
C342        C343   1.396       .  A
C342        C347   1.388       .  A
C342       C1182   1.438       .  S
C343        C344   1.390       .  A
C343        H348   1.085       .  S
C344        C345   1.448       .  A
C344        C362   1.525       .  S
C345        C346   1.443       .  A
C345        H349   1.069       .  S
C346        C347   1.381       .  A
C347        H350   1.087       .  S
O351        C359   1.266       .  A
O351       Co371   2.035   1_554  S
O352        C360   1.282       .  A
O352       Co372   2.069   1_554  S
O353        C361   1.271       .  A
O353       Co373   1.992       .  S
O354        C362   1.261       .  A
O354       Co374   1.982   1_554  S
O355        C361   1.260       .  A
O355       Co372   1.972   1_554  S
O356        C362   1.291       .  A
O356       Co371   2.106   1_554  S
O357        C360   1.268       .  A
O357       Co374   1.995   1_554  S
O358        C359   1.266       .  A
O358       Co373   1.958       .  S
C359        C406   1.505       .  S
C361        C462   1.493       .  S
O363        C376   1.297       .  A
O363       Co371   2.088       .  S
O364        C377   1.289       .  A
O364       Co372   2.020       .  S
O365        C378   1.260       .  A
O365       Co373   2.006   1_556  S
O366        C379   1.258       .  A
O366       Co374   1.958       .  S
O367        C379   1.294       .  A
O367       Co372   2.077       .  S
O368        C378   1.281       .  A
O368       Co371   2.019       .  S
O369        C376   1.269       .  A
O369       Co374   1.981       .  S
O370        C377   1.259       .  A
O370       Co373   2.001   1_556  S
Co371       O375   2.174   1_556  S
Co372       O375   2.140   1_556  S
Co373       O375   2.171       .  S
Co374       O375   1.983   1_556  S
C377        C602   1.510       .  S
C380        C381   1.386       .  A
C380        C385   1.441       .  A
C380        C492   1.500       .  S
C381        C382   1.375       .  A
C381        H386   1.087       .  S
C382        C383   1.386       .  A
C382       C1169   1.430       .  S
C383        C384   1.392       .  A
C383        H387   1.085       .  S
C384        C385   1.445       .  A
C384        C641   1.511       .  S
C385        H388   1.082       .  S
C389        C390   1.437       .  A
C389        C394   1.392       .  A
C390        C391   1.441       .  A
C390        H395   1.067   1_655  S
C391        C392   1.378       .  A
C392        C393   1.384       .  A
C392        H396   1.086       .  S
C393        C394   1.394       .  A
C393       C1150   1.430       .  S
C394        H397   1.085       .  S
C398        C399   1.399       .  A
C398        C403   1.390       .  A
C398       C1166   1.453       .  S
C399        C400   1.389       .  A
C399       C1441   1.452       .  S
C400        C401   1.375       .  A
C400       C1153   1.441       .  S
C401        C402   1.368       .  A
C401       C1185   1.454       .  S
C402        C403   1.382       .  A
C402       C1134   1.432       .  S
C403       C1121   1.459       .  S
C404        C405   1.388       .  A
C404        C409   1.392       .  A
C404       C1137   1.460       .  S
C405        C406   1.398       .  A
C405        H410   1.084       .  S
C406        C407   1.443       .  A
C407        C408   1.443       .  A
C407        H411   1.082       .  S
C408        C409   1.402       .  A
C408        C440   1.504       .  S
C409        H412   1.084       .  S
O413        C421   1.283       .  A
O413       Co433   2.018       .  S
O414        C422   1.297       .  A
O414       Co434   2.091       .  S
O415        C423   1.270       .  A
O415       Co435   2.035   1_556  S
O416        C424   1.266       .  A
O416       Co436   1.951       .  S
O417        C423   1.280       .  A
O417       Co434   2.001       .  S
O418        C424   1.297       .  A
O418       Co433   2.084       .  S
O419        C422   1.266       .  A
O419       Co436   1.956       .  S
O420        C421   1.262       .  A
O420       Co435   2.006   1_556  S
O425        C438   1.286       .  A
O425       Co433   2.066   1_554  S
O426        C439   1.264       .  A
O426       Co434   2.046   1_554  S
O427        C440   1.259       .  A
O427       Co435   1.958       .  S
O428        C441   1.263       .  A
O428       Co436   1.988   1_554  S
O429        C441   1.280       .  A
O429       Co434   2.047   1_554  S
O430        C440   1.262       .  A
O430       Co433   2.039   1_554  S
O431        C438   1.265       .  A
O431       Co436   2.012   1_554  S
O432        C439   1.255       .  A
O432       Co435   1.958       .  S
Co433       O437   2.174   1_556  S
Co434       O437   2.167   1_556  S
Co435       O437   2.123       .  S
Co436       O437   1.971   1_556  S
C438        C451   1.522       .  S
C441        C442   1.490       .  S
C442        C443   1.439       .  A
C442        C447   1.379       .  A
C443        C444   1.440       .  A
C443        H448   1.082       .  S
C444        C445   1.396       .  A
C444        C510   1.511       .  S
C445        C446   1.389       .  A
C445        H449   1.084       .  S
C446        C447   1.377       .  A
C446       C1262   1.433       .  S
C447        H450   1.087       .  S
C451        C452   1.383       .  A
C451        C456   1.447       .  A
C452        C453   1.386       .  A
C452        H457   1.085       .  S
C453        C454   1.394       .  A
C453       C1118   1.437       .  S
C454        C455   1.390       .  A
C454        H458   1.086       .  S
C455        C456   1.447       .  A
C455        C494   1.516       .  S
C456        H459   1.073       .  S
C460        C461   1.442       .  A
C460        C465   1.393       .  A
C460        C538   1.500       .  S
C461        C462   1.441       .  A
C461        H466   1.082       .  S
C462        C463   1.392       .  A
C463        C464   1.382       .  A
C463        H467   1.087       .  S
C464        C465   1.381       .  A
C464       C1102   1.432       .  S
C465        H468   1.086       .  S
C469        C470   1.384       .  A
C469        C474   1.383       .  A
C469       C1473   1.437       .  S
C470        C471   1.386       .  A
C470       C1201   1.461       .  S
C471        C472   1.386       .  A
C471       C1105   1.440       .  S
C472        C473   1.387       .  A
C472       C1054   1.458       .  S
C473        C474   1.391       .  A
C473       C1070   1.439       .  S
C474       C1086   1.461       .  S
C475        C476   1.387       .  A
C475        C480   1.435       .  A
C475        C657   1.497       .  S
C476        C477   1.392       .  A
C476        H481   1.085       .  S
C477        C478   1.395       .  A
C477       C1073   1.439       .  S
C478        C479   1.387       .  A
C478        H482   1.086       .  S
C479        C480   1.428       .  A
C479        C495   1.515       .  S
C480        H483   1.061       .  S
O484        C492   1.271   1_545  A
O484       Co504   2.031       .  S
O485        C493   1.272       .  A
O485       Co505   1.997       .  S
O486        C494   1.264       .  A
O486       Co506   2.026       .  S
O487        C495   1.272       .  A
O487       Co507   2.032       .  S
O488        C494   1.256       .  A
O488       Co505   2.003   1_565  S
O489        C495   1.269       .  A
O489       Co504   2.036       .  S
O490        C493   1.301       .  A
O490       Co507   2.048       .  S
O491        C492   1.272       .  A
O491       Co506   2.013       .  S
C493        C780   1.499       .  S
O496        C509   1.267       .  A
O496       Co504   1.945       .  S
O497        C510   1.282   1_545  A
O497       Co505   1.934       .  S
O498        C511   1.306       .  A
O498       Co506   2.126       .  S
O499        C512   1.251       .  A
O499       Co507   1.987       .  S
O500        C512   1.273       .  A
O500       Co505   1.999       .  S
O501        C511   1.260   1_545  A
O501       Co504   1.906       .  S
O502        C509   1.319       .  A
O502       Co507   2.172       .  S
O503        C510   1.314       .  A
O503       Co506   2.094       .  S
Co504       O508   1.927       .  S
Co505       O508   2.043       .  S
Co506       O508   2.213   1_565  S
Co507       O508   2.164       .  S
C509        C807   1.526       .  S
C512        C544   1.513       .  S
O513        C521   1.264       .  A
O513       Co533   1.927   1_556  S
O514        C522   1.256       .  A
O514       Co534   1.978   1_554  S
O515        C523   1.300       .  A
O515       Co535   2.075       .  S
O516        C524   1.310       .  A
O516       Co536   2.138       .  S
O517        C523   1.270       .  A
O517       Co534   1.946       .  S
O518        C524   1.266       .  A
O518       Co533   1.941       .  S
O519        C522   1.284       .  A
O519       Co536   2.073       .  S
O520        C521   1.303       .  A
O520       Co535   2.098       .  S
C522        C546   1.512       .  S
C523        C553   1.507       .  S
C524        C800   1.511       .  S
O525        C538   1.265       .  A
O525       Co533   2.011       .  S
O526        C539   1.266       .  A
O526       Co534   1.990       .  S
O527        C540   1.276       .  A
O527       Co535   2.026       .  S
O528        C541   1.281       .  A
O528       Co536   2.006       .  S
O529        C541   1.294       .  A
O529       Co534   2.059   1_554  S
O530        C540   1.274       .  A
O530       Co533   2.050   1_556  S
O531        C538   1.275       .  A
O531       Co536   2.030       .  S
O532        C539   1.278       .  A
O532       Co535   2.038       .  S
Co533       O537   1.953       .  S
Co534       O537   2.007   1_556  S
Co535       O537   2.185   1_556  S
Co536       O537   2.140       .  S
C539        C564   1.505       .  S
C540        C598   1.523       .  S
C541        C782   1.497       .  S
C542        C543   1.401       .  A
C542        C547   1.400       .  A
C542       C1038   1.459       .  S
C543        C544   1.396       .  A
C543        H548   1.084       .  S
C544        C545   1.447       .  A
C545        C546   1.437       .  A
C545        H549   1.082       .  S
C546        C547   1.398       .  A
C547        H550   1.085       .  S
C551        C552   1.430       .  A
C551        C556   1.384       .  A
C551        C578   1.490       .  S
C552        C553   1.436       .  A
C552        H557   1.082       .  S
C553        C554   1.404       .  A
C554        C555   1.398       .  A
C554        H558   1.084       .  S
C555        C556   1.382       .  A
C555       C1022   1.453       .  S
C556        H559   1.087       .  S
C560        C561   1.391       .  A
C560        C565   1.389       .  A
C560       C1006   1.439       .  S
C561        C562   1.388       .  A
C561        H566   1.085       .  S
C562        C563   1.441       .  A
C562        C580   1.521       .  S
C563        C564   1.444       .  A
C563        H567   1.071       .  S
C564        C565   1.384       .  A
C565        H568   1.086       .  S
O569        C577   1.294       .  A
O569       Co589   2.065       .  S
O570        C578   1.274       .  A
O570       Co590   2.020       .  S
O571        C579   1.276       .  A
O571       Co591   1.995       .  S
O572        C580   1.277       .  A
O572       Co592   2.055       .  S
O573        C579   1.276       .  A
O573       Co590   2.033       .  S
O574        C580   1.281       .  A
O574       Co589   2.024       .  S
O575        C578   1.265       .  A
O575       Co592   2.007       .  S
O576        C577   1.290       .  A
O576       Co591   2.036       .  S
C577        C624   1.513       .  S
C579        C678   1.499       .  S
O581        C594   1.302       .  A
O581       Co589   2.114   1_565  S
O582        C595   1.309       .  A
O582       Co590   2.091   1_565  S
O583        C596   1.253       .  A
O583       Co591   2.027   1_565  S
O584        C597   1.266       .  A
O584       Co592   1.919   1_565  S
O585        C597   1.309       .  A
O585       Co590   2.143   1_565  S
O586        C596   1.261       .  A
O586       Co589   1.979   1_565  S
O587        C594   1.265       .  A
O587       Co592   1.932   1_565  S
O588        C595   1.267       .  A
O588       Co591   1.929   1_565  S
Co589       O593   2.111       .  S
Co590       O593   2.179       .  S
Co591       O593   2.037       .  S
Co592       O593   1.923       .  S
C598        C599   1.392       .  A
C598        C603   1.446       .  A
C599        C600   1.387       .  A
C599        H604   1.085       .  S
C600        C601   1.380       .  A
C600        C990   1.432       .  S
C601        C602   1.381       .  A
C601        H605   1.085       .  S
C602        C603   1.451       .  A
C603        H606   1.079       .  S
C607        C608   1.391       .  A
C607        C612   1.444       .  A
C607        C730   1.530       .  S
C608        C609   1.389       .  A
C608        H613   1.085       .  S
C609        C610   1.388       .  A
C609        C977   1.440       .  S
C610        C611   1.390       .  A
C610        H614   1.085       .  S
C611        C612   1.452       .  A
C612        H615   1.074   1_655  S
C616        C617   1.386       .  A
C616        C621   1.388       .  A
C616        C942   1.451       .  S
C617        C618   1.387       .  A
C617        C974   1.454       .  S
C618        C619   1.383       .  A
C618       C1425   1.441       .  S
C619        C620   1.383       .  A
C619        C993   1.455       .  S
C620        C621   1.387       .  A
C620       C1009   1.443       .  S
C621        C958   1.448       .  S
C622        C623   1.391       .  A
C622        C627   1.397       .  A
C622        C961   1.436       .  S
C623        C624   1.380       .  A
C623        H628   1.087       .  S
C624        C625   1.443       .  A
C625        C626   1.443       .  A
C625        H629   1.069       .  S
C626        C627   1.388       .  A
C626        C658   1.519       .  S
C627        H630   1.085       .  S
O631        C639   1.265       .  A
O631       Co651   1.988   1_565  S
O632        C640   1.313       .  A
O632       Co652   2.138   1_565  S
O633        C641   1.268       .  A
O633       Co653   1.942   1_565  S
O634        C642   1.265       .  A
O634       Co654   1.946   1_565  S
O635        C641   1.307       .  A
O635       Co652   2.087   1_565  S
O636        C642   1.306       .  A
O636       Co651   2.125   1_565  S
O637        C640   1.263       .  A
O637       Co654   1.920   1_565  S
O638        C639   1.250       .  A
O638       Co653   2.008   1_565  S
O643        C656   1.282       .  A
O643       Co651   2.024       .  S
O644        C657   1.279       .  A
O644       Co652   2.041       .  S
O645        C658   1.295       .  A
O645       Co653   2.052       .  S
O646        C659   1.268       .  A
O646       Co654   2.015       .  S
O647        C659   1.274       .  A
O647       Co652   2.025       .  S
O648        C658   1.295       .  A
O648       Co651   2.068       .  S
O649        C656   1.270       .  A
O649       Co654   2.038       .  S
O650        C657   1.272       .  A
O650       Co653   1.986       .  S
Co651       O655   2.109       .  S
Co652       O655   2.170       .  S
Co653       O655   2.041       .  S
Co654       O655   1.949       .  S
C656        C669   1.521       .  S
C659        C660   1.499       .  S
C660        C661   1.391       .  A
C660        C665   1.433       .  A
C661        C662   1.388       .  A
C661        H666   1.086       .  S
C662        C663   1.391       .  A
C662       C1089   1.443       .  S
C663        C664   1.395       .  A
C663        H667   1.085       .  S
C664        C665   1.437       .  A
C664        C748   1.506       .  S
C665        H668   1.082       .  S
C669        C670   1.379       .  A
C669        C674   1.448       .  A
C670        C671   1.380       .  A
C670        H675   1.085       .  S
C671        C672   1.385       .  A
C671        C945   1.433       .  S
C672        C673   1.389       .  A
C672        H676   1.086       .  S
C673        C674   1.451       .  A
C673        C732   1.510       .  S
C674        H677   1.076       .  S
C678        C679   1.433       .  A
C678        C683   1.397       .  A
C679        C680   1.425       .  A
C679        H684   1.061       .  S
C680        C681   1.396       .  A
C680        C718   1.519       .  S
C681        C682   1.404       .  A
C681        H685   1.085       .  S
C682        C683   1.401       .  A
C682        C929   1.463       .  S
C683        H686   1.084       .  S
C687        C688   1.390       .  A
C687        C692   1.403       .  A
C687       C1489   1.440       .  S
C688        C689   1.385       .  A
C688       C1297   1.489       .  S
C689        C690   1.402       .  A
C689        C910   1.450       .  S
C690        C691   1.398       .  A
C690        C897   1.437       .  S
C691        C692   1.400       .  A
C691        C926   1.496       .  S
C692       C1025   1.458       .  S
O693        C701   1.263   1_545  A
O693       Co713   1.900       .  S
O694        C702   1.270       .  A
O694       Co714   1.994       .  S
O695        C703   1.325       .  A
O695       Co715   2.130       .  S
O696        C704   1.318       .  A
O696       Co716   2.170       .  S
O697        C703   1.272   1_545  A
O697       Co714   1.908       .  S
O698        C704   1.269       .  A
O698       Co713   1.950       .  S
O699        C702   1.252       .  A
O699       Co716   1.983       .  S
O700        C701   1.306       .  A
O700       Co715   2.132       .  S
C702        C753   1.502       .  S
C704        C809   1.531       .  S
O705        C718   1.273       .  A
O705       Co713   2.040       .  S
O706        C719   1.250   1_545  A
O706       Co714   1.975       .  S
O707        C720   1.277       .  A
O707       Co715   2.033       .  S
O708        C721   1.301       .  A
O708       Co716   2.061       .  S
O709        C721   1.263       .  A
O709       Co714   1.979       .  S
O710        C720   1.274   1_545  A
O710       Co713   2.033       .  S
O711        C718   1.273       .  A
O711       Co716   2.032       .  S
O712        C719   1.259       .  A
O712       Co715   2.018       .  S
Co713       O717   1.911       .  S
Co714       O717   1.994       .  S
Co715       O717   2.225   1_565  S
Co716       O717   2.159       .  S
C721        C773   1.499       .  S
O722        C730   1.274   1_455  A
O722       Co742   2.049       .  S
O723        C731   1.291       .  A
O723       Co743   2.032       .  S
O724        C732   1.281       .  A
O724       Co744   2.037       .  S
O725        C733   1.275       .  A
O725       Co745   2.026       .  S
O726        C732   1.273   1_455  A
O726       Co743   2.004       .  S
O727        C733   1.271       .  A
O727       Co742   2.024       .  S
O728        C731   1.287       .  A
O728       Co745   2.027       .  S
O729        C730   1.278       .  A
O729       Co744   2.031       .  S
C731        C769   1.488       .  S
C733        C762   1.508       .  S
O734        C747   1.267       .  A
O734       Co742   1.945       .  S
O735        C748   1.267       .  A
O735       Co743   1.942   1_655  S
O736        C749   1.307       .  A
O736       Co744   2.114       .  S
O737        C750   1.278       .  A
O737       Co745   2.050       .  S
O738        C750   1.253       .  A
O738       Co743   1.985       .  S
O739        C749   1.266   1_455  A
O739       Co742   1.928       .  S
O740        C747   1.310       .  A
O740       Co745   2.137       .  S
O741        C748   1.303       .  A
O741       Co744   2.077       .  S
Co742       O746   1.946       .  S
Co743       O746   2.013       .  S
Co744       O746   2.180   1_655  S
Co745       O746   2.131       .  S
C747        C818   1.516       .  S
C750        C755   1.506       .  S
C751        C752   1.397       .  A
C751        C756   1.398       .  A
C751        C878   1.446       .  S
C752        C753   1.387       .  A
C752        H757   1.085       .  S
C753        C754   1.440       .  A
C754        C755   1.432       .  A
C754        H758   1.079       .  S
C755        C756   1.390       .  A
C756        H759   1.085       .  S
C760        C761   1.440       .  A
C760        C765   1.374       .  A
C761        C762   1.441       .  A
C761        H766   1.080       .  S
C762        C763   1.397       .  A
C763        C764   1.386       .  A
C763        H767   1.084       .  S
C764        C765   1.365       .  A
C764        C913   1.419       .  S
C765        H768   1.090       .  S
C769        C770   1.387       .  A
C769        C774   1.425       .  A
C770        C771   1.397       .  A
C770        H775   1.086       .  S
C771        C772   1.398       .  A
C771        C894   1.440       .  S
C772        C773   1.377       .  A
C772        H776   1.085       .  S
C773        C774   1.429       .  A
C774        H777   1.076       .  S
C778        C779   1.390       .  A
C778        C783   1.398       .  A
C778       C1057   1.449       .  S
C779        C780   1.383       .  A
C779        H784   1.086       .  S
C780        C781   1.432       .  A
C781        C782   1.430       .  A
C781        H785   1.079       .  S
C782        C783   1.396       .  A
C783        H786   1.086       .  S
C787        C788   1.397       .  A
C787        C792   1.393       .  A
C787       C1230   1.442       .  S
C788        C789   1.387       .  A
C788        H793   1.085       .  S
C789        C790   1.436       .  A
C790        C791   1.436       .  A
C790        H794   1.065       .  S
C791        C792   1.385       .  A
C792        H795   1.086       .  S
C796        C797   1.389       .  A
C796        C801   1.387       .  A
C796        C862   1.445       .  S
C797        C798   1.395       .  A
C797        H802   1.084       .  S
C798        C799   1.441       .  A
C799        C800   1.445       .  A
C799        H803   1.080       .  S
C800        C801   1.390       .  A
C801        H804   1.085       .  S
C805        C806   1.391       .  A
C805        C810   1.396       .  A
C805        C846   1.448       .  S
C806        C807   1.387       .  A
C806        H811   1.085       .  S
C807        C808   1.454       .  A
C808        C809   1.453       .  A
C808        H812   1.082       .  S
C809        C810   1.394       .  A
C810        H813   1.084       .  S
C814        C815   1.394       .  A
C814        C819   1.391       .  A
C814        C830   1.456       .  S
C815        C816   1.399       .  A
C815        H820   1.084       .  S
C816        C817   1.444       .  A
C817        C818   1.443       .  A
C817        H821   1.081       .  S
C818        C819   1.390       .  A
C819        H822   1.085       .  S
C823        C824   1.409       .  A
C823        C828   1.402       .  A
C823       C1214   1.457       .  S
C824        C825   1.395       .  A
C824        C865   1.475       .  S
C825        C826   1.385       .  A
C825       C1041   1.459       .  S
C826        C827   1.394       .  A
C826        C849   1.477       .  S
C827        C828   1.400       .  A
C827        C881   1.448       .  S
C828        C833   1.486       .  S
C829        C830   1.406       .  A
C829        C834   1.406       .  A
C829        H836   1.084       .  S
C830        C831   1.400       .  A
C831        C832   1.381       .  A
C831        C838   1.512       .  S
C832        C833   1.400       .  A
C832        H837   1.066       .  S
C833        C834   1.407       .  A
C834        C835   1.501       .  S
C835        H839   1.110       .  S
C835        H840   1.109       .  S
C835        H841   1.107       .  S
C838        H842   1.109       .  S
C838        H843   1.111       .  S
C838        H844   1.111       .  S
C845        C846   1.382       .  A
C845        C850   1.384       .  A
C845        H852   1.086       .  S
C846        C847   1.411       .  A
C847        C848   1.399       .  A
C847        C854   1.506       .  S
C848        C849   1.398       .  A
C848        H853   1.084       .  S
C849        C850   1.428       .  A
C850        C851   1.504       .  S
C851        H855   1.110       .  S
C851        H856   1.110       .  S
C851        H857   1.100       .  S
C854        H858   1.110       .  S
C854        H859   1.110       .  S
C854        H860   1.110       .  S
C861        C862   1.403       .  A
C861        C866   1.398       .  A
C861        H868   1.084       .  S
C862        C863   1.397       .  A
C863        C864   1.381       .  A
C863        C870   1.509       .  S
C864        C865   1.405       .  A
C864        H869   1.079       .  S
C865        C866   1.408       .  A
C866        C867   1.505       .  S
C867        H871   1.110       .  S
C867        H872   1.108       .  S
C867        H873   1.110       .  S
C870        H874   1.110       .  S
C870        H875   1.110       .  S
C870        H876   1.111       .  S
C877        C878   1.398       .  A
C877        C882   1.397       .  A
C877        H884   1.084       .  S
C878        C879   1.421       .  A
C879        C880   1.369       .  A
C879        C886   1.513       .  S
C880        C881   1.383       .  A
C880        H885   1.076       .  S
C881        C882   1.406       .  A
C882        C883   1.505       .  S
C883        H887   1.110       .  S
C883        H888   1.111       .  S
C883        H889   1.109       .  S
C886        H890   1.104       .  S
C886        H891   1.106       .  S
C886        H892   1.111       .  S
C893        C894   1.406       .  A
C893        C898   1.381       .  A
C893        H900   1.085       .  S
C894        C895   1.403       .  A
C895        C896   1.384       .  A
C895        C902   1.508       .  S
C896        C897   1.401       .  A
C896        H901   1.084       .  S
C897        C898   1.406       .  A
C898        C899   1.510       .  S
C899        H903   1.110       .  S
C899        H904   1.108       .  S
C899        H905   1.106       .  S
C902        H906   1.109       .  S
C902        H907   1.110       .  S
C902        H908   1.111       .  S
C909        C910   1.394       .  A
C909        C914   1.362       .  A
C909        H916   1.085       .  S
C910        C911   1.409       .  A
C911        C912   1.389       .  A
C911        C918   1.501       .  S
C912        C913   1.394       .  A
C912        H917   1.084       .  S
C913        C914   1.409       .  A
C914        C915   1.516       .  S
C915        H919   1.111       .  S
C915        H920   1.109       .  S
C915        H921   1.110       .  S
C918        H922   1.107       .  S
C918        H923   1.108       .  S
C918        H924   1.110       .  S
C925        C926   1.416       .  A
C925        C930   1.406       .  A
C925        H932   1.084       .  S
C926        C927   1.404       .  A
C927        C928   1.377       .  A
C927        C934   1.508       .  S
C928        C929   1.403       .  A
C928        H933   1.085       .  S
C929        C930   1.404       .  A
C930        C931   1.502       .  S
C931        H935   1.110       .  S
C931        H936   1.110       .  S
C931        H937   1.111       .  S
C934        H938   1.103       .  S
C934        H939   1.104       .  S
C934        H940   1.111       .  S
C941        C942   1.407       .  A
C941        C946   1.379       .  A
C941        H948   1.085       .  S
C942        C943   1.401       .  A
C943        C944   1.386       .  A
C943        C950   1.504       .  S
C944        C945   1.404       .  A
C944        H949   1.085       .  S
C945        C946   1.399       .  A
C946        C947   1.509       .  S
C947        H951   1.111       .  S
C947        H952   1.110       .  S
C947        H953   1.109       .  S
C950        H954   1.107       .  S
C950        H955   1.110       .  S
C950        H956   1.110       .  S
C957        C958   1.393       .  A
C957        C962   1.378       .  A
C957        H964   1.082       .  S
C958        C959   1.411       .  A
C959        C960   1.390       .  A
C959        C966   1.508       .  S
C960        C961   1.393       .  A
C960        H965   1.084       .  S
C961        C962   1.413       .  A
C962        C963   1.513       .  S
C963        H967   1.111       .  S
C963        H968   1.109       .  S
C963        H969   1.108       .  S
C966        H970   1.110       .  S
C966        H971   1.109       .  S
C966        H972   1.110       .  S
C973        C974   1.403       .  A
C973        C978   1.391       .  A
C973        H980   1.085       .  S
C974        C975   1.407       .  A
C975        C976   1.379       .  A
C975        C982   1.502       .  S
C976        C977   1.398       .  A
C976        H981   1.086       .  S
C977        C978   1.399       .  A
C978        C979   1.504       .  S
C979        H983   1.111       .  S
C979        H984   1.110       .  S
C979        H985   1.110       .  S
C982        H986   1.100       .  S
C982        H987   1.110       .  S
C982        H988   1.110       .  S
C989        C990   1.401       .  A
C989        C994   1.386       .  A
C989        H996   1.085       .  S
C990        C991   1.396       .  A
C991        C992   1.382       .  A
C991        C998   1.506       .  S
C992        C993   1.407       .  A
C992        H997   1.085       .  S
C993        C994   1.404       .  A
C994        C995   1.504       .  S
C995        H999   1.111       .  S
C995       H1000   1.106       .  S
C995       H1001   1.102       .  S
C998       H1002   1.110       .  S
C998       H1003   1.110       .  S
C998       H1004   1.111       .  S
C1005      C1006   1.404       .  A
C1005      C1010   1.381       .  A
C1005      H1012   1.086       .  S
C1006      C1007   1.400       .  A
C1007      C1008   1.387       .  A
C1007      C1014   1.506       .  S
C1008      C1009   1.402       .  A
C1008      H1013   1.085       .  S
C1009      C1010   1.402       .  A
C1010      C1011   1.506       .  S
C1011      H1015   1.110       .  S
C1011      H1016   1.105       .  S
C1011      H1017   1.110       .  S
C1014      H1018   1.109       .  S
C1014      H1019   1.110       .  S
C1014      H1020   1.111       .  S
C1021      C1022   1.402       .  A
C1021      C1026   1.376       .  A
C1021      H1028   1.085       .  S
C1022      C1023   1.402       .  A
C1023      C1024   1.399       .  A
C1023      C1030   1.503       .  S
C1024      C1025   1.406       .  A
C1024      H1029   1.083       .  S
C1025      C1026   1.408       .  A
C1026      C1027   1.515       .  S
C1027      H1031   1.110       .  S
C1027      H1032   1.103       .  S
C1027      H1033   1.108       .  S
C1030      H1034   1.110       .  S
C1030      H1035   1.110       .  S
C1030      H1036   1.111       .  S
C1037      C1038   1.403       .  A
C1037      C1042   1.372       .  A
C1037      H1044   1.082       .  S
C1038      C1039   1.400       .  A
C1039      C1040   1.399       .  A
C1039      C1046   1.503       .  S
C1040      C1041   1.408       .  A
C1040      H1045   1.084       .  S
C1041      C1042   1.405       .  A
C1042      C1043   1.499       .  S
C1043      H1047   1.111       .  S
C1043      H1048   1.086       .  S
C1043      H1049   1.111       .  S
C1046      H1050   1.110       .  S
C1046      H1051   1.110       .  S
C1046      H1052   1.111       .  S
C1053      C1054   1.406       .  A
C1053      C1058   1.392       .  A
C1053      H1060   1.083       .  S
C1054      C1055   1.402       .  A
C1055      C1056   1.386       .  A
C1055      C1062   1.505       .  S
C1056      C1057   1.405       .  A
C1056      H1061   1.085       .  S
C1057      C1058   1.402       .  A
C1058      C1059   1.506       .  S
C1059      H1063   1.111       .  S
C1059      H1064   1.111       .  S
C1059      H1065   1.110       .  S
C1062      H1066   1.110       .  S
C1062      H1067   1.107       .  S
C1062      H1068   1.110       .  S
C1069      C1070   1.386       .  A
C1069      C1074   1.372       .  A
C1069      H1076   1.082       .  S
C1070      C1071   1.410       .  A
C1071      C1072   1.390       .  A
C1071      C1078   1.507       .  S
C1072      C1073   1.395       .  A
C1072      H1077   1.084       .  S
C1073      C1074   1.419       .  A
C1074      C1075   1.511       .  S
C1075      H1079   1.111       .  S
C1075      H1080   1.106       .  S
C1075      H1081   1.108       .  S
C1078      H1082   1.110       .  S
C1078      H1083   1.108       .  S
C1078      H1084   1.110       .  S
C1085      C1086   1.403       .  A
C1085      C1090   1.401       .  A
C1085      H1092   1.083       .  S
C1086      C1087   1.416       .  A
C1087      C1088   1.372       .  A
C1087      C1094   1.512       .  S
C1088      C1089   1.392       .  A
C1088      H1093   1.087       .  S
C1089      C1090   1.403       .  A
C1090      C1091   1.503       .  S
C1091      H1095   1.111       .  S
C1091      H1096   1.110       .  S
C1091      H1097   1.111       .  S
C1094      H1098   1.110       .  S
C1094      H1099   1.099       .  S
C1094      H1100   1.111       .  S
C1101      C1102   1.401       .  A
C1101      C1106   1.365       .  A
C1101      H1108   1.086       .  S
C1102      C1103   1.396       .  A
C1103      C1104   1.390       .  A
C1103      C1110   1.503       .  S
C1104      C1105   1.404       .  A
C1104      H1109   1.080       .  S
C1105      C1106   1.404       .  A
C1106      C1107   1.515       .  S
C1107      H1111   1.110       .  S
C1107      H1112   1.106       .  S
C1107      H1113   1.109       .  S
C1110      H1114   1.110       .  S
C1110      H1115   1.111       .  S
C1110      H1116   1.111       .  S
C1117      C1118   1.402       .  A
C1117      C1122   1.385       .  A
C1117      H1124   1.085       .  S
C1118      C1119   1.397       .  A
C1119      C1120   1.388       .  A
C1119      C1126   1.506       .  S
C1120      C1121   1.406       .  A
C1120      H1125   1.079       .  S
C1121      C1122   1.402       .  A
C1122      C1123   1.504       .  S
C1123      H1127   1.109       .  S
C1123      H1128   1.107       .  S
C1123      H1129   1.111       .  S
C1126      H1130   1.111       .  S
C1126      H1131   1.110       .  S
C1126      H1132   1.111       .  S
C1133      C1134   1.406       .  A
C1133      C1138   1.390       .  A
C1133      H1140   1.083       .  S
C1134      C1135   1.387       .  A
C1135      C1136   1.366       .  A
C1135      C1142   1.508       .  S
C1136      C1137   1.417       .  A
C1136      H1141   1.072       .  S
C1137      C1138   1.399       .  A
C1138      C1139   1.504       .  S
C1139      H1143   1.111       .  S
C1139      H1144   1.110       .  S
C1139      H1145   1.110       .  S
C1142      H1146   1.110       .  S
C1142      H1147   1.105       .  S
C1142      H1148   1.110       .  S
C1149      C1150   1.393       .  A
C1149      C1154   1.388       .  A
C1149      H1156   1.084       .  S
C1150      C1151   1.413       .  A
C1151      C1152   1.372       .  A
C1151      C1158   1.514       .  S
C1152      C1153   1.389       .  A
C1152      H1157   1.076       .  S
C1153      C1154   1.408       .  A
C1154      C1155   1.507       .  S
C1155      H1159   1.110       .  S
C1155      H1160   1.110       .  S
C1155      H1161   1.108       .  S
C1158      H1162   1.110       .  S
C1158      H1163   1.107       .  S
C1158      H1164   1.111       .  S
C1165      C1166   1.407       .  A
C1165      C1170   1.384       .  A
C1165      H1172   1.080       .  S
C1166      C1167   1.399       .  A
C1167      C1168   1.378       .  A
C1167      C1174   1.508       .  S
C1168      C1169   1.403       .  A
C1168      H1173   1.085       .  S
C1169      C1170   1.392       .  A
C1170      C1171   1.505       .  S
C1171      H1175   1.111       .  S
C1171      H1176   1.110       .  S
C1171      H1177   1.110       .  S
C1174      H1178   1.104       .  S
C1174      H1179   1.105       .  S
C1174      H1180   1.110       .  S
C1181      C1182   1.385       .  A
C1181      C1186   1.387       .  A
C1181      H1188   1.085       .  S
C1182      C1183   1.417       .  A
C1183      C1184   1.386       .  A
C1183      C1190   1.510       .  S
C1184      C1185   1.389       .  A
C1184      H1189   1.084       .  S
C1185      C1186   1.421       .  A
C1186      C1187   1.507       .  S
C1187      H1191   1.111       .  S
C1187      H1192   1.102       .  S
C1187      H1193   1.102       .  S
C1190      H1194   1.108       .  S
C1190      H1195   1.109       .  S
C1190      H1196   1.111       .  S
C1197      C1198   1.395       .  A
C1197      C1202   1.391       .  A
C1197      H1204   1.085       .  S
C1198      C1199   1.407       .  A
C1199      C1200   1.386       .  A
C1199      C1206   1.508       .  S
C1200      C1201   1.395       .  A
C1200      H1205   1.083       .  S
C1201      C1202   1.412       .  A
C1202      C1203   1.510       .  S
C1203      H1207   1.111       .  S
C1203      H1208   1.104       .  S
C1203      H1209   1.105       .  S
C1206      H1210   1.110       .  S
C1206      H1211   1.110       .  S
C1206      H1212   1.111       .  S
C1213      C1214   1.408       .  A
C1213      C1218   1.386       .  A
C1213      H1220   1.079       .  S
C1214      C1215   1.401       .  A
C1215      C1216   1.381       .  A
C1215      C1222   1.508       .  S
C1216      C1217   1.405       .  A
C1216      H1221   1.085       .  S
C1217      C1218   1.396       .  A
C1218      C1219   1.506       .  S
C1219      H1223   1.111       .  S
C1219      H1224   1.110       .  S
C1219      H1225   1.110       .  S
C1222      H1226   1.109       .  S
C1222      H1227   1.109       .  S
C1222      H1228   1.110       .  S
C1229      C1230   1.395       .  A
C1229      C1234   1.390       .  A
C1229      H1236   1.085       .  S
C1230      C1231   1.412       .  A
C1231      C1232   1.379       .  A
C1231      C1238   1.511       .  S
C1232      C1233   1.395       .  A
C1232      H1237   1.084       .  S
C1233      C1234   1.413       .  A
C1234      C1235   1.509       .  S
C1235      H1239   1.110       .  S
C1235      H1240   1.110       .  S
C1235      H1241   1.107       .  S
C1238      H1242   1.110       .  S
C1238      H1243   1.105       .  S
C1238      H1244   1.111       .  S
C1245      C1246   1.386       .  A
C1245      C1250   1.367       .  A
C1245      H1252   1.078       .  S
C1246      C1247   1.407       .  A
C1247      C1248   1.396       .  A
C1247      C1254   1.506       .  S
C1248      C1249   1.400       .  A
C1248      H1253   1.084       .  S
C1249      C1250   1.422       .  A
C1250      C1251   1.514       .  S
C1251      H1255   1.111       .  S
C1251      H1256   1.104       .  S
C1251      H1257   1.106       .  S
C1254      H1258   1.110       .  S
C1254      H1259   1.107       .  S
C1254      H1260   1.111       .  S
C1261      C1262   1.398       .  A
C1261      C1266   1.395       .  A
C1261      H1268   1.084       .  S
C1262      C1263   1.405       .  A
C1263      C1264   1.368       .  A
C1263      C1270   1.515       .  S
C1264      C1265   1.401       .  A
C1264      H1269   1.083       .  S
C1265      C1266   1.410       .  A
C1266      C1267   1.502       .  S
C1267      H1271   1.110       .  S
C1267      H1272   1.110       .  S
C1267      H1273   1.104       .  S
C1270      H1274   1.109       .  S
C1270      H1275   1.110       .  S
C1270      H1276   1.111       .  S
C1277      C1278   1.397       .  A
C1277      C1282   1.391       .  A
C1277      H1284   1.084       .  S
C1278      C1279   1.406       .  A
C1279      C1280   1.367       .  A
C1279      C1286   1.515       .  S
C1280      C1281   1.401       .  A
C1280      H1285   1.086       .  S
C1281      C1282   1.406       .  A
C1282      C1283   1.501       .  S
C1283      H1287   1.111       .  S
C1283      H1288   1.100       .  S
C1283      H1289   1.106       .  S
C1286      H1290   1.110       .  S
C1286      H1291   1.108       .  S
C1286      H1292   1.111       .  S
C1293      C1294   1.400       .  A
C1293      C1298   1.400       .  A
C1293      H1300   1.084       .  S
C1294      C1295   1.408       .  A
C1295      C1296   1.391       .  A
C1295      C1302   1.509       .  S
C1296      C1297   1.403       .  A
C1296      H1301   1.081       .  S
C1297      C1298   1.413       .  A
C1298      C1299   1.504       .  S
C1299      H1303   1.110       .  S
C1299      H1304   1.108       .  S
C1299      H1305   1.108       .  S
C1302      H1306   1.110       .  S
C1302      H1307   1.110       .  S
C1302      H1308   1.111       .  S
C1309      C1310   1.406       .  A
C1309      C1314   1.398       .  A
C1309      H1316   1.081       .  S
C1310      C1311   1.411       .  A
C1311      C1312   1.372       .  A
C1311      C1318   1.504       .  S
C1312      C1313   1.401       .  A
C1312      H1317   1.083       .  S
C1313      C1314   1.406       .  A
C1314      C1315   1.506       .  S
C1315      H1319   1.111       .  S
C1315      H1320   1.110       .  S
C1315      H1321   1.106       .  S
C1318      H1322   1.101       .  S
C1318      H1323   1.092       .  S
C1318      H1324   1.111       .  S
C1325      C1326   1.412       .  A
C1325      C1330   1.410       .  A
C1325      H1332   1.083       .  S
C1326      C1327   1.393       .  A
C1327      C1328   1.384       .  A
C1327      C1334   1.504       .  S
C1328      C1329   1.422       .  A
C1328      H1333   1.082       .  S
C1329      C1330   1.415       .  A
C1330      C1331   1.505       .  S
C1331      H1335   1.111       .  S
C1331      H1336   1.110       .  S
C1331      H1337   1.105       .  S
C1334      H1338   1.110       .  S
C1334      H1339   1.109       .  S
C1334      H1340   1.111       .  S
C1341      C1342   1.398       .  A
C1341      C1346   1.382       .  A
C1341      H1348   1.082       .  S
C1342      C1343   1.411       .  A
C1343      C1344   1.395       .  A
C1343      C1350   1.505       .  S
C1344      C1345   1.397       .  A
C1344      H1349   1.085       .  S
C1345      C1346   1.407       .  A
C1346      C1347   1.511       .  S
C1347      H1351   1.111       .  S
C1347      H1352   1.110       .  S
C1347      H1353   1.110       .  S
C1350      H1354   1.108       .  S
C1350      H1355   1.109       .  S
C1350      H1356   1.110       .  S
C1357      C1358   1.398       .  A
C1357      C1362   1.395       .  A
C1357      H1364   1.084       .  S
C1358      C1359   1.404       .  A
C1359      C1360   1.377       .  A
C1359      C1366   1.511       .  S
C1360      C1361   1.402       .  A
C1360      H1365   1.085       .  S
C1361      C1362   1.410       .  A
C1362      C1363   1.500       .  S
C1363      H1367   1.110       .  S
C1363      H1368   1.103       .  S
C1363      H1369   1.110       .  S
C1366      H1370   1.109       .  S
C1366      H1371   1.110       .  S
C1366      H1372   1.111       .  S
C1373      C1374   1.404       .  A
C1373      C1378   1.384       .  A
C1373      H1380   1.085       .  S
C1374      C1375   1.399       .  A
C1375      C1376   1.387       .  A
C1375      C1382   1.505       .  S
C1376      C1377   1.403       .  A
C1376      H1381   1.085       .  S
C1377      C1378   1.401       .  A
C1378      C1379   1.507       .  S
C1379      H1383   1.109       .  S
C1379      H1384   1.109       .  S
C1379      H1385   1.109       .  S
C1382      H1386   1.110       .  S
C1382      H1387   1.110       .  S
C1382      H1388   1.111       .  S
C1389      C1390   1.394       .  A
C1389      C1394   1.391       .  A
C1389      H1396   1.085       .  S
C1390      C1391   1.423       .  A
C1391      C1392   1.376       .  A
C1391      C1398   1.505       .  S
C1392      C1393   1.381       .  A
C1392      H1397   1.077       .  S
C1393      C1394   1.423       .  A
C1394      C1395   1.509       .  S
C1395      H1399   1.111       .  S
C1395      H1400   1.104       .  S
C1395      H1401   1.110       .  S
C1398      H1402   1.104       .  S
C1398      H1403   1.107       .  S
C1398      H1404   1.111       .  S
C1405      C1406   1.399       .  A
C1405      C1410   1.384       .  A
C1405      H1412   1.081       .  S
C1406      C1407   1.410       .  A
C1407      C1408   1.391       .  A
C1407      C1414   1.508       .  S
C1408      C1409   1.397       .  A
C1408      H1413   1.084       .  S
C1409      C1410   1.410       .  A
C1410      C1411   1.511       .  S
C1411      H1415   1.111       .  S
C1411      H1416   1.110       .  S
C1411      H1417   1.110       .  S
C1414      H1418   1.108       .  S
C1414      H1419   1.107       .  S
C1414      H1420   1.110       .  S
C1421      C1422   1.391       .  A
C1421      C1426   1.387       .  A
C1421      H1428   1.084       .  S
C1422      C1423   1.408       .  A
C1423      C1424   1.373       .  A
C1423      C1430   1.513       .  S
C1424      C1425   1.393       .  A
C1424      H1429   1.083       .  S
C1425      C1426   1.412       .  A
C1426      C1427   1.512       .  S
C1427      H1431   1.111       .  S
C1427      H1432   1.103       .  S
C1427      H1433   1.107       .  S
C1430      H1434   1.109       .  S
C1430      H1435   1.110       .  S
C1430      H1436   1.111       .  S
C1437      C1438   1.399       .  A
C1437      C1442   1.389       .  A
C1437      H1444   1.085       .  S
C1438      C1439   1.395       .  A
C1439      C1440   1.371       .  A
C1439      C1446   1.510       .  S
C1440      C1441   1.403       .  A
C1440      H1445   1.078       .  S
C1441      C1442   1.406       .  A
C1442      C1443   1.505       .  S
C1443      H1447   1.110       .  S
C1443      H1448   1.111       .  S
C1443      H1449   1.107       .  S
C1446      H1450   1.110       .  S
C1446      H1451   1.110       .  S
C1446      H1452   1.111       .  S
C1453      C1454   1.404       .  A
C1453      C1458   1.390       .  A
C1453      H1460   1.085       .  S
C1454      C1455   1.399       .  A
C1455      C1456   1.370       .  A
C1455      C1462   1.509       .  S
C1456      C1457   1.409       .  A
C1456      H1461   1.084       .  S
C1457      C1458   1.402       .  A
C1458      C1459   1.505       .  S
C1459      H1463   1.110       .  S
C1459      H1464   1.110       .  S
C1459      H1465   1.109       .  S
C1462      H1466   1.105       .  S
C1462      H1467   1.109       .  S
C1462      H1468   1.110       .  S
C1469      C1470   1.393       .  A
C1469      C1474   1.385       .  A
C1469      H1476   1.084       .  S
C1470      C1471   1.408       .  A
C1471      C1472   1.374       .  A
C1471      C1478   1.512       .  S
C1472      C1473   1.391       .  A
C1472      H1477   1.079       .  S
C1473      C1474   1.407       .  A
C1474      C1475   1.507       .  S
C1475      H1479   1.110       .  S
C1475      H1480   1.108       .  S
C1475      H1481   1.110       .  S
C1478      H1482   1.109       .  S
C1478      H1483   1.110       .  S
C1478      H1484   1.111       .  S
C1485      C1486   1.398       .  A
C1485      C1490   1.380       .  A
C1485      H1492   1.086       .  S
C1486      C1487   1.399       .  A
C1487      C1488   1.381       .  A
C1487      C1494   1.507       .  S
C1488      C1489   1.399       .  A
C1488      H1493   1.085       .  S
C1489      C1490   1.404       .  A
C1490      C1491   1.505       .  S
C1491      H1495   1.110       .  S
C1491      H1496   1.105       .  S
C1491      H1497   1.109       .  S
C1494      H1498   1.110       .  S
C1494      H1499   1.110       .  S
C1494      H1500   1.111       .  S
C1501      C1502   1.393       .  A
C1501      C1506   1.387       .  A
C1501      H1508   1.082       .  S
C1502      C1503   1.418       .  A
C1503      C1504   1.390       .  A
C1503      C1510   1.508       .  S
C1504      C1505   1.391       .  A
C1504      H1509   1.085       .  S
C1505      C1506   1.410       .  A
C1506      C1507   1.509       .  S
C1507      H1511   1.111       .  S
C1507      H1512   1.110       .  S
C1507      H1513   1.110       .  S
C1510      H1514   1.110       .  S
C1510      H1515   1.105       .  S
C1510      H1516   1.110       .  S
C1517      C1518   1.403       .  A
C1517      C1522   1.384       .  A
C1517      H1524   1.082       .  S
C1518      C1519   1.406       .  A
C1519      C1520   1.400       .  A
C1519      C1526   1.503       .  S
C1520      C1521   1.403       .  A
C1520      H1525   1.084       .  S
C1521      C1522   1.403       .  A
C1522      C1523   1.509       .  S
C1523      H1527   1.111       .  S
C1523      H1528   1.110       .  S
C1523      H1529   1.110       .  S
C1526      H1530   1.110       .  S
C1526      H1531   1.108       .  S
C1526      H1532   1.110       .  S
C1533      C1534   1.404       .  A
C1533      C1538   1.385       .  A
C1533      H1540   1.085       .  S
C1534      C1535   1.402       .  A
C1535      C1536   1.388       .  A
C1535      C1542   1.504       .  S
C1536      C1537   1.402       .  A
C1536      H1541   1.085       .  S
C1537      C1538   1.398       .  A
C1538      C1539   1.506       .  S
C1539      H1543   1.111       .  S
C1539      H1544   1.110       .  S
C1539      H1545   1.111       .  S
C1542      H1546   1.110       .  S
C1542      H1547   1.110       .  S
C1542      H1548   1.107       .  S
C1549      C1550   1.407       .  A
C1549      C1554   1.377       .  A
C1549      H1556   1.083       .  S
C1550      C1551   1.399       .  A
C1551      C1552   1.395       .  A
C1551      C1558   1.504       .  S
C1552      C1553   1.406       .  A
C1552      H1557   1.079       .  S
C1553      C1554   1.399       .  A
C1554      C1555   1.511       .  S
C1555      H1559   1.110       .  S
C1555      H1560   1.105       .  S
C1555      H1561   1.106       .  S
C1558      H1562   1.111       .  S
C1558      H1563   1.110       .  S
C1558      H1564   1.111       .  S
C1565      C1566   1.394       .  A
C1565      C1570   1.387       .  A
C1565      H1572   1.084       .  S
C1566      C1567   1.412       .  A
C1567      C1568   1.377       .  A
C1567      C1574   1.512       .  S
C1568      C1569   1.392       .  A
C1568      H1573   1.083       .  S
C1569      C1570   1.406       .  A
C1570      C1571   1.508       .  S
C1571      H1575   1.110       .  S
C1571      H1576   1.109       .  S
C1571      H1577   1.110       .  S
C1574      H1578   1.110       .  S
C1574      H1579   1.109       .  S
C1574      H1580   1.111       .  S
C1581      C1582   1.395       .  A
C1581      C1586   1.391       .  A
C1581      H1588   1.084       .  S
C1582      C1583   1.408       .  A
C1583      C1584   1.375       .  A
C1583      C1590   1.513       .  S
C1584      C1585   1.395       .  A
C1584      H1589   1.081       .  S
C1585      C1586   1.408       .  A
C1586      C1587   1.507       .  S
C1587      H1591   1.110       .  S
C1587      H1592   1.110       .  S
C1587      H1593   1.109       .  S
C1590      H1594   1.109       .  S
C1590      H1595   1.110       .  S
C1590      H1596   1.111       .  S
