geometry optimzed in LAMMPS
_audit_creation_date              2020-11-30 
_audit_creation_method            'lammps2cif' 
_symmetry_space_group_name_H-M    'P1' 
_symmetry_Int_Tables_number       1 
_symmetry_cell_setting            triclinic 
loop_ 
_symmetry_equiv_pos_as_xyz 
  x,y,z 
_cell_length_a                    36.78233105 
_cell_length_b                    37.388079543191026 
_cell_length_c                    37.463620812829674 
_cell_angle_alpha                 90.12423521892761 
_cell_angle_beta                  90.36121603770509 
_cell_angle_gamma                 89.63804568455785 
loop_ 
_atom_site_label 
_atom_site_type_symbol 
_atom_site_fract_x 
_atom_site_fract_y 
_atom_site_fract_z 
_atom_site_charge 
O1          O  0.56812983  0.95918414  0.47219393    -0.80400
O2          O  0.46140283  0.94981891  0.51894003    -0.80400
O3          O  0.51975270  0.96781720  0.55447749    -0.80400
O4          O  0.47241363  0.95750598  0.42710949    -0.80400
O5          O  0.47113716  0.98652684  0.58181441    -0.80500
O6          O  0.52620359  0.97360990  0.40881767    -0.80400
O7          O  0.42501378  0.97095836  0.47836784    -0.80400
O8          O  0.58089250  0.98887440  0.52182807    -0.80400
C9          C  0.58960429  0.96538736  0.49809309     1.09300
C10         C  0.43131025  0.94841057  0.50281446     1.09200
C11         C  0.50065915  0.96832830  0.58293104     1.09300
C12         C  0.49666450  0.95696645  0.40384690     1.09200
O13         O  0.53166967  0.04748712  0.42881223    -0.80400
O14         O  0.49141286  0.04861077  0.55095266    -0.80500
O15         O  0.54828112  0.06090634  0.50987425    -0.80400
O16         O  0.43832993  0.04657341  0.47234887    -0.80400
O17         O  0.42778878  0.02030793  0.52376003    -0.80500
O18         O  0.58447052  0.03352313  0.47434036    -0.80400
O19         O  0.47887405  0.03154621  0.40801104    -0.80400
O20         O  0.54253343  0.03344331  0.57663097    -0.80500
Co21       Co  0.54851605  0.00257198  0.44907793     1.51500
Co22       Co  0.47874098  0.99894866  0.53158814     1.51700
Co23       Co  0.53129855  0.01418089  0.52910627     1.51600
Co24       Co  0.45755375  0.00271532  0.44943186     1.51500
O25         O  0.50366345  0.00305761  0.48255392    -1.42300
C26         C  0.50922368  0.04703909  0.40375102     1.09200
C27         C  0.51314151  0.05187000  0.57777346     1.09300
C28         C  0.57918746  0.05866773  0.49594032     1.09200
C29         C  0.41727200  0.04100190  0.49841017     1.09200
O30         O  0.96725296  0.54046740  0.52646055    -0.80400
O31         O  0.95067064  0.44395719  0.51178156    -0.80400
O32         O  0.99018889  0.52123557  0.42744533    -0.80400
O33         O  0.97804813  0.47879593  0.57505867    -0.80400
O34         O  0.94710200  0.48880336  0.45229142    -0.80500
O35         O  0.99944229  0.53032080  0.59344553    -0.80400
O36         O  0.98789651  0.41339805  0.54369796    -0.80400
O37         O  0.99914512  0.56624514  0.48426017    -0.80400
C38         C  0.97425605  0.56796023  0.50810833     1.09300
C39         C  0.95822859  0.41450306  0.52619173     1.09200
C40         C  0.95766462  0.51067532  0.42861343     1.09300
C41         C  0.98037525  0.50278104  0.59959150     1.09200
O42         O  0.05794370  0.49501537  0.56558566    -0.80400
O43         O  0.00945029  0.45411332  0.42518877    -0.80500
O44         O  0.07053130  0.53239060  0.49601804    -0.80400
O45         O  0.05808021  0.43168044  0.51844501    -0.80400
O46         O  0.01599395  0.40939460  0.48222836    -0.80500
O47         O  0.04111219  0.55988156  0.53717057    -0.80400
O48         O  0.04238359  0.44514327  0.59105422    -0.80400
O49         O  0.05780158  0.48680598  0.43712662    -0.80500
Co50       Co  0.01034563  0.51548938  0.54504000     1.51500
Co51       Co  0.98151168  0.45120064  0.47001506     1.51700
Co52       Co  0.02936639  0.52422268  0.46364851     1.51600
Co53       Co  0.02025958  0.45791924  0.54492977     1.51500
O54         O  0.01053052  0.48692243  0.49889295    -1.42300
C55         C  0.05990157  0.47445299  0.59293909     1.09200
C56         C  0.04070641  0.46522821  0.41672733     1.09300
C57         C  0.06558658  0.56074579  0.51347898     1.09200
C58         C  0.04606861  0.40601096  0.49959710     1.09200
O59         O  0.44549686  0.49950431  0.94010256    -0.80400
O60         O  0.55316792  0.51004493  0.94801128    -0.80400
O61         O  0.49248778  0.56092190  0.95873081    -0.80400
O62         O  0.52703291  0.41573898  0.98240623    -0.80400
O63         O  0.54653275  0.58133596  0.97186442    -0.80500
O64         O  0.48978227  0.43696278  0.94040089    -0.80400
O65         O  0.57658183  0.46930481  0.98413080    -0.80400
O66         O  0.42574638  0.53816296  0.97810471    -0.80400
C67         C  0.42021642  0.52015237  0.94999889     1.09300
C68         C  0.57910959  0.48923799  0.95646606     1.09200
C69         C  0.51541242  0.58659908  0.95734303     1.09300
C70         C  0.51335021  0.41414780  0.95135592     1.09200
O71         O  0.46004554  0.41896728  0.00647645    -0.80400
O72         O  0.51570302  0.56260533  0.03451911    -0.80500
O73         O  0.44987895  0.51723989  0.04637369    -0.80400
O74         O  0.54778662  0.49066073  0.05366957    -0.80400
O75         O  0.57754843  0.52623930  0.01951857    -0.80500
O76         O  0.41856690  0.48036337  0.01170496    -0.80400
O77         O  0.49831979  0.43315231  0.04981588    -0.80400
O78         O  0.46352505  0.58677278  0.02062107    -0.80500
Co79       Co  0.45628686  0.46134022  0.97519161     1.51500
Co80       Co  0.53131634  0.53446698  0.98949073     1.51700
Co81       Co  0.47371777  0.53809434  0.00466159     1.51600
Co82       Co  0.53499117  0.45483079  0.01720235     1.51500
O83         O  0.49849796  0.49028910  0.99634578    -1.42300
C84         C  0.47408089  0.41274616  0.03668452     1.09200
C85         C  0.49463673  0.59023077  0.03501711     1.09300
C86         C  0.42060882  0.50064736  0.03953268     1.09200
C87         C  0.57735661  0.50594945  0.04683461     1.09200
C88         C  0.59686182  0.92855960  0.77293402     0.02900
C89         C  0.61956126  0.89860926  0.76865445    -0.13300
C90         C  0.61798189  0.87781146  0.73778511     0.00400
C91         C  0.59315947  0.88675266  0.71077560    -0.11800
C92         C  0.57148672  0.91796042  0.71314011     0.02800
C93         C  0.57376126  0.93892008  0.74447731    -0.11200
H94         H  0.63797923  0.89074278  0.78998161     0.08400
H95         H  0.59180154  0.87000360  0.68716117     0.06000
H96         H  0.55787582  0.96312730  0.74685314     0.05800
C97         C  0.76715860  0.72558559  0.70543379     0.02900
C98         C  0.76543794  0.69930251  0.73209382    -0.13300
C99         C  0.73770883  0.70013083  0.75776041     0.00400
C100        C  0.71138171  0.72755055  0.75631813    -0.11800
C101        C  0.71298757  0.75420803  0.72998635     0.02800
C102        C  0.74081049  0.75282361  0.70452851    -0.11200
H103        H  0.78620764  0.67864200  0.73333790     0.08400
H104        H  0.69028200  0.72872816  0.77633567     0.06000
H105        H  0.74264155  0.77369657  0.68459483     0.05800
C106        C  0.93916720  0.77044346  0.58467875     0.02900
C107        C  0.94933238  0.74024877  0.56357290    -0.13300
C108        C  0.92948267  0.70775173  0.56556598     0.00400
C109        C  0.89810534  0.70721357  0.58699555    -0.11800
C110        C  0.88942991  0.73555100  0.60961609     0.02800
C111        C  0.91026542  0.76651419  0.60887388    -0.11200
H112        H  0.97233441  0.74194501  0.54593937     0.08400
H113        H  0.88088501  0.68381732  0.58745765     0.06000
H114        H  0.90309439  0.78805962  0.62692101     0.05800
C115        C  0.77968874  0.56437241  0.91520971     0.02900
C116        C  0.75056859  0.54105809  0.92233982    -0.13300
C117        C  0.71616694  0.54536813  0.90549412     0.00400
C118        C  0.71285730  0.57141944  0.87844201    -0.11800
C119        C  0.74221138  0.59343585  0.86964617     0.02800
C120        C  0.77480067  0.59078432  0.88898519    -0.11200
H121        H  0.75490405  0.51967575  0.94123157     0.08400
H122        H  0.68714836  0.57567089  0.86483514     0.06000
H123        H  0.79636276  0.60953633  0.88345303     0.05800
C124        C  0.28232958  0.23994856  0.75602831     0.02900
C125        C  0.25545720  0.24321661  0.72960337    -0.13300
C126        C  0.22790362  0.26895165  0.73247352     0.00400
C127        C  0.22764878  0.29242771  0.76175120    -0.11800
C128        C  0.25364025  0.28911663  0.78960996     0.02800
C129        C  0.28092435  0.26240279  0.78619650    -0.11200
H130        H  0.25594634  0.22559874  0.70658109     0.08400
H131        H  0.20745335  0.31354835  0.76207468     0.06000
H132        H  0.30093105  0.25840314  0.80712090     0.05800
C133        C  0.28227241  0.45553917  0.92206391     0.02900
C134        C  0.28423457  0.42306655  0.90250402    -0.13300
C135        C  0.25641611  0.39736966  0.90319989     0.00400
C136        C  0.22721672  0.40308927  0.92637658    -0.11800
C137        C  0.22339910  0.43519890  0.94550976     0.02800
C138        C  0.25071634  0.46135556  0.94307368    -0.11200
H139        H  0.30746293  0.41730249  0.88641964     0.08400
H140        H  0.20656071  0.38274304  0.92889210     0.06000
H141        H  0.24651232  0.48625277  0.95715449     0.05800
C142        C  0.42448273  0.08158408  0.76828382     0.02900
C143        C  0.39732838  0.10814062  0.76634349    -0.13300
C144        C  0.39666610  0.13364777  0.73918231     0.00400
C145        C  0.42185505  0.13100656  0.71126983    -0.11800
C146        C  0.44738886  0.10248498  0.70987507     0.02800
C147        C  0.44906318  0.07864566  0.73934931    -0.11200
H148        H  0.37654218  0.10975860  0.78661478     0.08400
H149        H  0.42056073  0.15058278  0.69006413     0.06000
H150        H  0.46917930  0.05763024  0.73956080     0.05800
C151        C  0.08359855  0.21190020  0.58539946     0.02900
C152        C  0.10459886  0.21995561  0.61589009    -0.13300
C153        C  0.11994156  0.25403498  0.62066903     0.00400
C154        C  0.11267343  0.28082140  0.59533472    -0.11800
C155        C  0.09172750  0.27387227  0.56458465     0.02800
C156        C  0.07837153  0.23885042  0.55941885    -0.11200
H157        H  0.10929743  0.19959438  0.63587555     0.08400
H158        H  0.12295971  0.30750289  0.60010934     0.06000
H159        H  0.06369713  0.23243228  0.53519952     0.05800
O160        O  0.49329496  0.03217501  0.90546092    -0.80400
O161        O  0.46501853  0.98479431  0.04938350    -0.80400
O162        O  0.45283757  0.94840685  0.98359621    -0.80400
O163        O  0.45225410  0.04753911  0.00097858    -0.80400
O164        O  0.48624106  0.92091053  0.02192184    -0.80500
O165        O  0.48604932  0.07804786  0.96352563    -0.80400
O166        O  0.47552879  0.03756535  0.07265867    -0.80400
O167        O  0.45281493  0.99327696  0.92388705    -0.80400
C168        C  0.46335454  0.01614142  0.90130323     1.09300
C169        C  0.46251055  0.00612179  0.07609866     1.09200
C170        C  0.46053346  0.91973127  0.99990210     1.09300
C171        C  0.45808820  0.07620071  0.98375713     1.09200
O172        O  0.55967784  0.05700372  0.98522570    -0.80400
O173        O  0.55700811  0.95071801  0.00596252    -0.80500
O174        O  0.52419640  0.96885781  0.90855669    -0.80400
O175        O  0.54369442  0.01789821  0.04975225    -0.80400
O176        O  0.53312963  0.96709309  0.07242940    -0.80500
O177        O  0.56334660  0.00975944  0.92753529    -0.80400
O178        O  0.52013923  0.07825720  0.02207565    -0.80400
O179        O  0.52547286  0.92264325  0.96535130    -0.80500
Co180      Co  0.52527024  0.04174624  0.94779729     1.51500
Co181      Co  0.51067575  0.96743932  0.02457004     1.51700
Co182      Co  0.48939763  0.96144618  0.94772824     1.51600
Co183      Co  0.49610791  0.02916655  0.02518900     1.51500
O184        O  0.50890390  0.00172066  0.98099167    -1.42300
C185        C  0.54853409  0.08318883  0.00349136     1.09200
C186        C  0.55145234  0.92269297  0.98825449     1.09300
C187        C  0.55474272  0.98416198  0.90683459     1.09200
C188        C  0.54757842  0.99674263  0.07585500     1.09200
C189        C  0.28191622  0.74764287  0.77805794     0.02900
C190        C  0.28043368  0.77154454  0.74920297    -0.13300
C191        C  0.25452731  0.76747136  0.72182662     0.00400
C192        C  0.22995849  0.73872917  0.72326709    -0.11800
C193        C  0.22991534  0.71498477  0.75264448     0.02800
C194        C  0.25624524  0.71990430  0.77982447    -0.11200
H195        H  0.29977526  0.79324931  0.74784090     0.08400
H196        H  0.21102744  0.73497244  0.70136535     0.06000
H197        H  0.25715666  0.70182766  0.80235646     0.05800
C198        C  0.43147852  0.78445710  0.93108016     0.02900
C199        C  0.45266786  0.75345952  0.93725628    -0.13300
C200        C  0.44697305  0.72218556  0.91674937     0.00400
C201        C  0.42120919  0.72357565  0.88859986    -0.11800
C202        C  0.39835902  0.75336594  0.88384928     0.02800
C203        C  0.40281736  0.78309101  0.90610769    -0.11200
H204        H  0.47328693  0.75376746  0.95801579     0.08400
H205        H  0.41790204  0.70090150  0.87090684     0.06000
H206        H  0.38448972  0.80571004  0.90319575     0.05800
C207        C  0.23339202  0.92277688  0.57307216     0.02900
C208        C  0.22951457  0.89640025  0.59947865    -0.13300
C209        C  0.25831862  0.87266252  0.60752173     0.00400
C210        C  0.29077896  0.87496614  0.58798518    -0.11800
C211        C  0.29562092  0.90164075  0.56193974     0.02800
C212        C  0.26692365  0.92609054  0.55555748    -0.11200
H213        H  0.20380813  0.89382426  0.61317728     0.08400
H214        H  0.31272005  0.85635337  0.59376389     0.06000
H215        H  0.27051896  0.94813608  0.53730512     0.05800
C216        C  0.08240030  0.55836206  0.78714062     0.02900
C217        C  0.08128480  0.53628299  0.75655005    -0.13300
C218        C  0.10344751  0.54322855  0.72671893     0.00400
C219        C  0.12941158  0.57068362  0.72948761    -0.11800
C220        C  0.13000550  0.59393988  0.75895042     0.02800
C221        C  0.10571835  0.58824501  0.78714473    -0.11200
H222        H  0.06288393  0.51401284  0.75597056     0.08400
H223        H  0.14857730  0.57481323  0.70811567     0.06000
H224        H  0.10512967  0.60712134  0.80908677     0.05800
C225        C  0.75819829  0.27972185  0.22578098     0.02900
C226        C  0.73140285  0.25327233  0.22554067    -0.13300
C227        C  0.73147288  0.22612965  0.25118532     0.00400
C228        C  0.75818554  0.22602198  0.27818702    -0.11800
C229        C  0.78621792  0.25181166  0.27895027     0.02800
C230        C  0.78568258  0.27868826  0.25221379    -0.11200
H231        H  0.71031991  0.25376961  0.20520585     0.08400
H232        H  0.75623026  0.20612699  0.29896798     0.06000
H233        H  0.80679200  0.29868848  0.25141277     0.05800
C234        C  0.94089325  0.22341085  0.43265496     0.02900
C235        C  0.91764072  0.22541539  0.40253745    -0.13300
C236        C  0.89274099  0.25385954  0.39768974     0.00400
C237        C  0.89295757  0.28176596  0.42314466    -0.11800
C238        C  0.91908623  0.28307303  0.45096971     0.02800
C239        C  0.94163085  0.25276911  0.45648753    -0.11200
H240        H  0.91877036  0.20420190  0.38287616     0.08400
H241        H  0.87290637  0.30295573  0.42131237     0.06000
H242        H  0.95956777  0.25197801  0.47934199     0.05800
C243        C  0.77680964  0.42335527  0.06802734     0.02900
C244        C  0.74690424  0.44763033  0.06727814    -0.13300
C245        C  0.71691375  0.44345461  0.09044440     0.00400
C246        C  0.71902305  0.41712907  0.11734267    -0.11800
C247        C  0.74815760  0.39284093  0.11894816     0.02800
C248        C  0.77540080  0.39500093  0.09304708    -0.11200
H249        H  0.74617089  0.46939777  0.04851709     0.08400
H250        H  0.69692864  0.41436053  0.13609746     0.06000
H251        H  0.79585366  0.37419154  0.09315003     0.05800
C252        C  0.59250391  0.06554014  0.20700244     0.02900
C253        C  0.62128720  0.09023190  0.21002726    -0.13300
C254        C  0.62431628  0.11292903  0.23983919     0.00400
C255        C  0.60005641  0.10859826  0.26816098    -0.11800
C256        C  0.57370639  0.08168984  0.26738375     0.02800
C257        C  0.56917009  0.06100041  0.23637635    -0.11200
H258        H  0.64122507  0.09213107  0.18913955     0.08400
H259        H  0.60314515  0.12479258  0.29201797     0.06000
H260        H  0.54795022  0.04104689  0.23549436     0.05800
O261        O  0.94485041  0.54552140  0.97604831    -0.80400
O262        O  0.05360498  0.54124457  0.03245811    -0.80400
O263        O  0.96493656  0.53486906  0.07891433    -0.80400
O264        O  0.01292398  0.53359956  0.94259919    -0.80400
O265        O  0.02055383  0.51305745  0.09094743    -0.80500
O266        O  0.96597071  0.50913766  0.91501962    -0.80400
O267        O  0.07692599  0.52592796  0.98244174    -0.80400
O268        O  0.91413371  0.52482013  0.02172613    -0.80400
C269        C  0.91556630  0.54393017  0.99353477     1.09300
C270        C  0.07978811  0.54329946  0.01078218     1.09200
C271        C  0.99251313  0.53221228  0.09960243     1.09300
C272        C  0.99572713  0.52686203  0.91333851     1.09200
O273        O  0.98896604  0.45078488  0.95522925    -0.80400
O274        O  0.01845835  0.44339141  0.05359940    -0.80500
O275        O  0.93854761  0.45101798  0.02176213    -0.80400
O276        O  0.06024431  0.45606679  0.00069100    -0.80400
O277        O  0.08437629  0.47680176  0.05071392    -0.80500
O278        O  0.91956367  0.47399012  0.97199140    -0.80400
O279        O  0.03865854  0.46818927  0.93335067    -0.80400
O280        O  0.97373335  0.46094179  0.08607809    -0.80500
Co281      Co  0.96858395  0.49927159  0.96641401     1.51500
Co282      Co  0.03456170  0.49244379  0.04164543     1.51700
Co283      Co  0.94969627  0.49341241  0.04985331     1.51600
Co284      Co  0.03290589  0.49713912  0.97774176     1.51500
O285        O  0.99037158  0.50136830  0.01498656    -1.42300
C286        C  0.01136584  0.44895221  0.92974680     1.09200
C287        C  0.00091659  0.44070620  0.08202407     1.09300
C288        C  0.91395920  0.45362502  0.99868679     1.09200
C289        C  0.08828611  0.46009614  0.02092561     1.09200
C290        C  0.21201313  0.05577976  0.41880520     0.02900
C291        C  0.21824151  0.07806011  0.38963814    -0.13300
C292        C  0.24908294  0.09951075  0.38803165     0.00400
C293        C  0.27717095  0.09414525  0.41301524    -0.11800
C294        C  0.27368728  0.06948259  0.44127848     0.02800
C295        C  0.23972624  0.05188331  0.44504274    -0.11200
H296        H  0.19838595  0.07915746  0.36821836     0.08400
H297        H  0.30202832  0.10915776  0.41007730     0.06000
H298        H  0.23435940  0.03587257  0.46832368     0.05800
C299        C  0.25780233  0.20762607  0.27674645     0.02900
C300        C  0.23669007  0.23903885  0.28018370    -0.13300
C301        C  0.23256303  0.26275900  0.25165965     0.00400
C302        C  0.25332962  0.25798735  0.22098260    -0.11800
C303        C  0.27659636  0.22849697  0.21796028     0.02800
C304        C  0.27728516  0.20237993  0.24482901    -0.11200
H305        H  0.22245217  0.24493802  0.30471037     0.08400
H306        H  0.25148006  0.27729910  0.19947987     0.06000
H307        H  0.29296470  0.17824379  0.24041835     0.05800
C308        C  0.07417254  0.40124849  0.21276894     0.02900
C309        C  0.10333695  0.37695266  0.21470606    -0.13300
C310        C  0.12405253  0.37368325  0.24592573     0.00400
C311        C  0.11511643  0.39370078  0.27610787    -0.11800
C312        C  0.08504775  0.41685082  0.27569435     0.02800
C313        C  0.06480680  0.42095471  0.24365149    -0.11200
H314        H  0.10995505  0.36032683  0.19188387     0.08400
H315        H  0.13041159  0.38957448  0.30060884     0.06000
H316        H  0.04196980  0.43937756  0.24277699     0.05800
C317        C  0.40922231  0.20874724  0.05157853     0.02900
C318        C  0.42873348  0.24120688  0.04730582    -0.13300
C319        C  0.42035125  0.27161553  0.06858411     0.00400
C320        C  0.39398733  0.26826256  0.09526947    -0.11800
C321        C  0.37379970  0.23702941  0.09876348     0.02800
C322        C  0.38012069  0.20835232  0.07576214    -0.11200
H323        H  0.45001500  0.24287750  0.02758954     0.08400
H324        H  0.38859277  0.29043632  0.11321894     0.06000
H325        H  0.36306095  0.18499965  0.07800345     0.05800
C326        C  0.78514062  0.27956841  0.74787899     0.02900
C327        C  0.78685465  0.25388081  0.72051587    -0.13300
C328        C  0.76092089  0.22656837  0.71806933     0.00400
C329        C  0.73347453  0.22455250  0.74398531    -0.11800
C330        C  0.73163349  0.24952991  0.77209906     0.02800
C331        C  0.75750079  0.27723960  0.77364824    -0.11200
H332        H  0.80877940  0.25492688  0.70137235     0.08400
H333        H  0.71375937  0.20316787  0.74250954     0.06000
H334        H  0.75642437  0.29666948  0.79511954     0.05800
C335        C  0.93289536  0.43682643  0.73085451     0.02900
C336        C  0.94911643  0.44228475  0.76479354    -0.13300
C337        C  0.94385539  0.41812969  0.79301716     0.00400
C338        C  0.91940078  0.38972753  0.78799270    -0.11800
C339        C  0.89987955  0.38582990  0.75593811     0.02800
C340        C  0.90746119  0.40880299  0.72727093    -0.11200
H341        H  0.96578820  0.46552448  0.76966568     0.08400
H342        H  0.91494930  0.37077533  0.80929243     0.06000
H343        H  0.89405683  0.40394188  0.70194983     0.05800
C344        C  0.57519612  0.27832884  0.91384282     0.02900
C345        C  0.57054693  0.24941951  0.93781337    -0.13300
C346        C  0.58866519  0.21591292  0.93273872     0.00400
C347        C  0.61163906  0.21301493  0.90235933    -0.11800
C348        C  0.61848209  0.24238139  0.88000385     0.02800
C349        C  0.59978225  0.27442847  0.88566244    -0.11200
H350        H  0.55344277  0.25392468  0.96069044     0.08400
H351        H  0.62402899  0.18795546  0.89485443     0.06000
H352        H  0.60478468  0.29675284  0.86798701     0.05800
C353        C  0.71523537  0.08863984  0.56519733     0.02900
C354        C  0.72253388  0.11582881  0.58998686    -0.13300
C355        C  0.75582721  0.11705147  0.60834674     0.00400
C356        C  0.78299229  0.09167254  0.60032616    -0.11800
C357        C  0.77692808  0.06462073  0.57458776     0.02800
C358        C  0.74228424  0.06270470  0.55818853    -0.11200
H359        H  0.70192547  0.13590167  0.59549868     0.08400
H360        H  0.80916080  0.09362922  0.61360056     0.06000
H361        H  0.73578666  0.04070240  0.54060126     0.05800
C362        C  0.74277738  0.77631577  0.28024183     0.02900
C363        C  0.71706825  0.77787930  0.25244216    -0.13300
C364        C  0.71665808  0.75157295  0.22566247     0.00400
C365        C  0.74268400  0.72405832  0.22626549    -0.11800
C366        C  0.76843439  0.72183627  0.25401497     0.02800
C367        C  0.76846505  0.74828420  0.28086984    -0.11200
H368        H  0.69735718  0.79954131  0.25167747     0.08400
H369        H  0.74275718  0.70427281  0.20507808     0.06000
H370        H  0.78845113  0.74709921  0.30221866     0.05800
C371        C  0.72730890  0.92363951  0.43759229     0.02900
C372        C  0.72259458  0.89763648  0.41052221    -0.13300
C373        C  0.75122284  0.88798015  0.38767476     0.00400
C374        C  0.78517525  0.90414919  0.39213858    -0.11800
C375        C  0.79121876  0.92956851  0.41902408     0.02800
C376        C  0.76212475  0.93945779  0.44162981    -0.11200
H377        H  0.69626129  0.88541532  0.40648689     0.08400
H378        H  0.80740040  0.89640267  0.37483332     0.06000
H379        H  0.76698616  0.95859523  0.46283413     0.05800
C380        C  0.92901920  0.57719896  0.23219956     0.02900
C381        C  0.89841337  0.59991257  0.22827655    -0.13300
C382        C  0.87613072  0.60823098  0.25736950     0.00400
C383        C  0.88186863  0.59119295  0.29007114    -0.11800
C384        C  0.91091683  0.56716125  0.29471185     0.02800
C385        C  0.93497418  0.56110405  0.26600997    -0.11200
H386        H  0.89155018  0.61156578  0.20271596     0.08400
H387        H  0.86401211  0.59730606  0.31220337     0.06000
H388        H  0.95869509  0.54443598  0.27050954     0.05800
C389        C  0.57965288  0.78839268  0.06304708     0.02900
C390        C  0.55769334  0.75790877  0.05610930    -0.13300
C391        C  0.56202478  0.72613509  0.07637908     0.00400
C392        C  0.58635685  0.72644057  0.10554669    -0.11800
C393        C  0.60968029  0.75529609  0.11150737     0.02800
C394        C  0.60687682  0.78545783  0.08954787    -0.11200
H395        H  0.53776445  0.75854987  0.03474880     0.08400
H396        H  0.58855245  0.70324301  0.12272369     0.06000
H397        H  0.62617464  0.80680651  0.09348278     0.05800
C398        C  0.22174590  0.74844074  0.28409802     0.02900
C399        C  0.22424303  0.71993046  0.25959906    -0.13300
C400        C  0.24713021  0.72172889  0.22961270     0.00400
C401        C  0.26993909  0.75166688  0.22622478    -0.11800
C402        C  0.26999446  0.77931321  0.25180561     0.02800
C403        C  0.24513902  0.77789505  0.28027537    -0.11200
H404        H  0.20873710  0.69607504  0.26464956     0.08400
H405        H  0.28776323  0.75368524  0.20341501     0.06000
H406        H  0.24424210  0.79947695  0.29960155     0.05800
C407        C  0.42598297  0.92466224  0.26928636     0.02900
C408        C  0.43484935  0.94017903  0.23613234    -0.13300
C409        C  0.41239422  0.93602887  0.20590144     0.00400
C410        C  0.38180246  0.91354037  0.20821869    -0.11800
C411        C  0.37408928  0.89545462  0.24016123     0.02800
C412        C  0.39532505  0.90222514  0.27063909    -0.11200
H413        H  0.45976200  0.95503528  0.23318569     0.08400
H414        H  0.36429467  0.90961318  0.18524950     0.06000
H415        H  0.38772458  0.88948624  0.29537942     0.05800
C416        C  0.08828643  0.69999281  0.44615526     0.02900
C417        C  0.11444094  0.70444005  0.41891496    -0.13300
C418        C  0.11693167  0.73655123  0.39964946     0.00400
C419        C  0.09360344  0.76499756  0.40826426    -0.11800
C420        C  0.06783233  0.76181407  0.43574160     0.02800
C421        C  0.06482186  0.72910883  0.45388804    -0.11200
H422        H  0.13327113  0.68300892  0.41261747     0.08400
H423        H  0.09618333  0.79012626  0.39414088     0.06000
H424        H  0.04459986  0.72698289  0.47442934     0.05800
C425        C  0.28218463  0.56017183  0.08735665     0.02900
C426        C  0.28070767  0.58541338  0.11556619    -0.13300
C427        C  0.25285766  0.61139351  0.11762923     0.00400
C428        C  0.22420325  0.60931312  0.09273675    -0.11800
C429        C  0.22128476  0.58047965  0.06886721     0.02800
C430        C  0.25154306  0.55751417  0.06433233    -0.11200
H431        H  0.30192913  0.58506059  0.13565751     0.08400
H432        H  0.20274008  0.62924941  0.09293230     0.06000
H433        H  0.25088732  0.53770390  0.04325379     0.05800
O434        O  0.97079878  0.93752628  0.55217586    -0.80400
O435        O  0.03947911  0.04983684  0.54756673    -0.80400
O436        O  0.07482062  0.97312853  0.54409906    -0.80400
O437        O  0.93603902  0.01431796  0.54573327    -0.80400
O438        O  0.09111005  0.01915979  0.51166865    -0.80500
O439        O  0.91553082  0.96749785  0.51697478    -0.80400
O440        O  0.98573428  0.07095405  0.54112886    -0.80400
O441        O  0.02545187  0.91676411  0.54451423    -0.80400
C442        C  0.99430793  0.91383627  0.55838882     1.09300
C443        C  0.01717144  0.07411430  0.55426244     1.09200
C444        C  0.09931596  0.99413961  0.53375401     1.09300
C445        C  0.91015744  0.99320491  0.53826084     1.09200
O446        O  0.96019376  0.96497260  0.45241219    -0.80400
O447        O  0.04361633  0.01518465  0.44862718    -0.80500
O448        O  0.01854017  0.92499454  0.46798841    -0.80400
O449        O  0.99188734  0.05877446  0.46574483    -0.80400
O450        O  0.04381342  0.08213185  0.48146973    -0.80500
O451        O  0.97051959  0.90295926  0.48995799    -0.80400
O452        O  0.93233917  0.01315509  0.46878195    -0.80400
O453        O  0.07544789  0.97042347  0.46772322    -0.80500
Co454      Co  0.96598176  0.95506319  0.50338756     1.51500
Co455      Co  0.03826056  0.03219042  0.49833233     1.51700
Co456      Co  0.04523821  0.94992130  0.50678393     1.51600
Co457      Co  0.96612945  0.03424763  0.50624064     1.51500
O458        O  0.00628420  0.99106138  0.51173322    -1.42300
C459        C  0.93393173  0.98604496  0.44850899     1.09200
C460        C  0.07138949  0.99567213  0.44577651     1.09300
C461        C  0.00017776  0.89746339  0.47440386     1.09200
C462        C  0.01199346  0.08655184  0.46784106     1.09200
C463        C  0.06944527  0.82391939  0.45714503    -0.26600
C464        C  0.04816358  0.79448502  0.44830323    -0.14700
C465        C  0.00986099  0.79745095  0.45101800     0.36000
C466        C  0.99392427  0.83083202  0.46088752    -0.26000
C467        C  0.01583660  0.86120828  0.46699869    -0.15300
C468        C  0.05418191  0.85669131  0.46607509     0.37100
N469        N  0.07913726  0.88486369  0.47399035    -0.89500
H470        H  0.09884031  0.82165705  0.45634853     0.18200
H471        H  0.96462032  0.83342872  0.46243526     0.18200
N472        N  0.98750336  0.76710756  0.44282985    -0.88600
H473        H  0.07347309  0.89556656  0.49910270     0.35500
H474        H  0.07745132  0.90423888  0.45403883     0.40600
H475        H  0.99112849  0.76089064  0.41582991     0.40300
H476        H  0.96005280  0.77358507  0.44601554     0.35100
C477        C  0.28177248  0.68126196  0.18801559    -0.26600
C478        C  0.24803944  0.69248434  0.20193867    -0.14700
C479        C  0.21606196  0.67737056  0.18702547     0.36000
C480        C  0.21867571  0.65079384  0.16076467    -0.26000
C481        C  0.25226993  0.63960230  0.14657435    -0.15300
C482        C  0.28421611  0.65614836  0.15987110     0.37100
N483        N  0.31893968  0.64857684  0.14405001    -0.89500
H484        H  0.30653045  0.69284360  0.19858276     0.18200
H485        H  0.19364174  0.63904424  0.15134666     0.18200
N486        N  0.18030803  0.68979234  0.19596559    -0.88600
H487        H  0.33953678  0.66303747  0.15673784     0.35500
H488        H  0.31789271  0.65748532  0.11760686     0.40600
H489        H  0.17950397  0.71769735  0.19463928     0.40300
H490        H  0.17351510  0.68121256  0.22150409     0.35100
C491        C  0.20620572  0.74924919  0.34945126    -0.26600
C492        C  0.19463622  0.74694963  0.31369016    -0.14700
C493        C  0.15719560  0.74237169  0.30647792     0.36000
C494        C  0.13233349  0.73936091  0.33477103    -0.26000
C495        C  0.14407133  0.74054821  0.37047737    -0.15300
C496        C  0.18144120  0.74592746  0.37772756     0.37100
N497        N  0.19486880  0.74843992  0.41359469    -0.89500
H498        H  0.23478888  0.75296862  0.35545982     0.18200
H499        H  0.10371334  0.73579079  0.32880620     0.18200
N500        N  0.14423593  0.74135822  0.27035959    -0.88600
H501        H  0.18893209  0.72463109  0.42682596     0.35500
H502        H  0.18111886  0.76936161  0.42638452     0.40600
H503        H  0.12525567  0.76203373  0.26703467     0.40300
H504        H  0.13079846  0.71709526  0.26642114     0.35100
C505        C  0.28428440  0.84508678  0.24839783    -0.26600
C506        C  0.29649329  0.80932352  0.24864364    -0.14700
C507        C  0.33414418  0.80243131  0.24553843     0.36000
C508        C  0.35860809  0.83092381  0.24203441    -0.26000
C509        C  0.34643301  0.86655615  0.24147413    -0.15300
C510        C  0.30880896  0.87361765  0.24475297     0.37100
N511        N  0.29494570  0.90947578  0.24506088    -0.89500
H512        H  0.25549828  0.85086159  0.25078757     0.18200
H513        H  0.38746092  0.82518641  0.24015552     0.18200
N514        N  0.34779615  0.76648758  0.24694930    -0.88600
H515        H  0.30225268  0.92177291  0.22114905     0.35500
H516        H  0.30738385  0.92326761  0.26609979     0.40600
H517        H  0.36613995  0.76465143  0.26831081     0.40300
H518        H  0.36208362  0.76144634  0.22341043     0.35100
C519        C  0.83458904  0.98137174  0.42101627    -0.26600
C520        C  0.82865059  0.94437266  0.42352585    -0.14700
C521        C  0.85890984  0.92131310  0.42823716     0.36000
C522        C  0.89396488  0.93569061  0.43157970    -0.26000
C523        C  0.89977533  0.97283042  0.43156017    -0.15300
C524        C  0.86986936  0.99579603  0.42465317     0.37100
N525        N  0.87524604  0.03374641  0.42272747    -0.89500
H526        H  0.81159273  0.99904558  0.41639677     0.18200
H527        H  0.91646912  0.91767738  0.43712824     0.18200
N528        N  0.85376321  0.88332321  0.43108052    -0.88600
H529        H  0.85053689  0.04699408  0.41819314     0.35500
H530        H  0.89149244  0.03860010  0.40048413     0.40600
H531        H  0.83864249  0.87865170  0.45412539     0.40300
H532        H  0.87866365  0.87009631  0.43458092     0.35100
C533        C  0.62678407  0.74567079  0.17553298    -0.26600
C534        C  0.63746858  0.75375934  0.14052750    -0.14700
C535        C  0.67453744  0.76020709  0.13364964     0.36000
C536        C  0.69991036  0.75968088  0.16180821    -0.26000
C537        C  0.68899670  0.75256955  0.19684958    -0.15300
C538        C  0.65212951  0.74489872  0.20361454     0.37100
N539        N  0.63994872  0.73530302  0.23854056    -0.89500
H540        H  0.59849881  0.74016071  0.18112390     0.18200
H541        H  0.72830862  0.76471615  0.15627031     0.18200
N542        N  0.68666034  0.76632137  0.09793763    -0.88600
H543        H  0.64512881  0.75653719  0.25598573     0.35500
H544        H  0.65491552  0.71303101  0.24711793     0.40600
H545        H  0.70593317  0.74665779  0.09166403     0.40300
H546        H  0.69954126  0.79116001  0.09730351     0.35100
C547        C  0.83267863  0.70034009  0.25812589    -0.26600
C548        C  0.79562763  0.69218644  0.25450833    -0.14700
C549        C  0.78508522  0.65596780  0.25098774     0.36000
C550        C  0.81183601  0.62883321  0.25120528    -0.26000
C551        C  0.84873901  0.63722445  0.25476607    -0.15300
C552        C  0.85918197  0.67334058  0.25815811     0.37100
N553        N  0.89656317  0.68321835  0.26216073    -0.89500
H554        H  0.84111935  0.72795723  0.26062443     0.18200
H555        H  0.80392212  0.60104089  0.24901993     0.18200
N556        N  0.74728188  0.64685545  0.24786640    -0.88600
H557        H  0.91078183  0.67415676  0.23979939     0.35500
H558        H  0.90717445  0.67039495  0.28474595     0.40600
H559        H  0.73460512  0.65433838  0.27166681     0.40300
H560        H  0.74417662  0.61918583  0.24535638     0.35100
C561        C  0.73405594  0.82598771  0.36878355    -0.26600
C562        C  0.74643598  0.86019572  0.35950052    -0.14700
C563        C  0.75613608  0.86687789  0.32374337     0.36000
C564        C  0.75450092  0.83923751  0.29833671    -0.26000
C565        C  0.74341361  0.80477521  0.30790860    -0.15300
C566        C  0.73253180  0.79831285  0.34343079     0.37100
N567        N  0.71938173  0.76406776  0.35428770    -0.89500
H568        H  0.72635677  0.82051115  0.39609659     0.18200
H569        H  0.76227083  0.84463440  0.27102157     0.18200
N570        N  0.76728288  0.90187580  0.31305722    -0.88600
H571        H  0.73986955  0.74503708  0.35020154     0.35500
H572        H  0.69713421  0.75748668  0.33811549     0.40600
H573        H  0.74962644  0.91069569  0.29289771     0.40300
H574        H  0.79335808  0.89979546  0.30226463     0.35100
C575        C  0.83002898  0.02550343  0.59213747    -0.26600
C576        C  0.80735410  0.03944151  0.56481181    -0.14700
C577        C  0.81728806  0.03257688  0.52875563     0.36000
C578        C  0.84920808  0.01363762  0.52134293    -0.26000
C579        C  0.87293536  0.00284186  0.54854459    -0.15300
C580        C  0.86297817  0.00788978  0.58418683     0.37100
N581        N  0.88682766  0.99614897  0.61221104    -0.89500
H582        H  0.82307000  0.02989046  0.61986222     0.18200
H583        H  0.85719973  0.01026406  0.49384446     0.18200
N584        N  0.79795663  0.04734987  0.49890021    -0.88600
H585        H  0.87253995  0.97839058  0.62835210     0.35500
H586        H  0.89377358  0.01841498  0.62767809     0.40600
H587        H  0.79432773  0.07482705  0.50281060     0.40300
H588        H  0.77290647  0.03481029  0.49635257     0.35100
C589        C  0.76796390  0.16312413  0.69831558    -0.26600
C590        C  0.76296861  0.19925598  0.68915249    -0.14700
C591        C  0.75807815  0.20832270  0.65275326     0.36000
C592        C  0.75718298  0.18127603  0.62676810    -0.26000
C593        C  0.76145596  0.14510384  0.63603688    -0.15300
C594        C  0.76736699  0.13609742  0.67212316     0.37100
N595        N  0.77117158  0.09940605  0.68245486    -0.89500
H596        H  0.77169710  0.15579014  0.72607738     0.18200
H597        H  0.75235870  0.18848830  0.59912670     0.18200
N598        N  0.75229524  0.24453256  0.64153821    -0.88600
H599        H  0.75063076  0.09360362  0.70067734     0.35500
H600        H  0.79618437  0.09639915  0.69555302     0.40600
H601        H  0.77534992  0.25945048  0.64785950     0.40300
H602        H  0.73011628  0.25507790  0.65546217     0.35100
C603        C  0.66604365  0.24528949  0.78965977    -0.26600
C604        C  0.70286670  0.24617511  0.79995498    -0.14700
C605        C  0.71178847  0.24322499  0.83660690     0.36000
C606        C  0.68379198  0.24066356  0.86210051    -0.26000
C607        C  0.64698846  0.24092058  0.85182117    -0.15300
C608        C  0.63821168  0.24304212  0.81507176     0.37100
N609        N  0.60125071  0.24267446  0.80280975    -0.89500
H610        H  0.65881826  0.24708693  0.76162976     0.18200
H611        H  0.69066094  0.23919001  0.89023332     0.18200
N612        N  0.74924711  0.24262584  0.84776740    -0.88600
H613        H  0.58765008  0.26489225  0.81329345     0.35500
H614        H  0.58891159  0.21955161  0.81249193     0.40600
H615        H  0.76119822  0.21952456  0.83714270     0.40300
H616        H  0.75124099  0.24044426  0.87552645     0.35100
C617        C  0.83530418  0.36858128  0.74356076    -0.26600
C618        C  0.87093040  0.35812916  0.75283820    -0.14700
C619        C  0.87809544  0.32171668  0.76032971     0.36000
C620        C  0.84951267  0.29680421  0.75901977    -0.26000
C621        C  0.81386000  0.30737306  0.75035421    -0.15300
C622        C  0.80685305  0.34370116  0.74229215     0.37100
N623        N  0.77130123  0.35587758  0.73205439    -0.89500
H624        H  0.82946017  0.39641304  0.73770496     0.18200
H625        H  0.85505807  0.26886706  0.76462619     0.18200
N626        N  0.91446470  0.31009750  0.76874655    -0.88600
H627        H  0.75338077  0.35053256  0.75287521     0.35500
H628        H  0.76299193  0.34135422  0.70959415     0.40600
H629        H  0.93044410  0.31449967  0.74622076     0.40300
H630        H  0.91515890  0.28256270  0.77357826     0.35100
C631        C  0.36210688  0.23610541  0.16359701    -0.26600
C632        C  0.34835308  0.23324462  0.12875370    -0.14700
C633        C  0.31109034  0.22669716  0.12325814     0.36000
C634        C  0.28800546  0.22375330  0.15278975    -0.26000
C635        C  0.30184366  0.22681834  0.18765909    -0.15300
C636        C  0.33932788  0.23293515  0.19300290     0.37100
N637        N  0.35472736  0.23740775  0.22794247    -0.89500
H638        H  0.39081475  0.24101271  0.16794783     0.18200
H639        H  0.25913649  0.21978719  0.14852692     0.18200
N640        N  0.29653502  0.22416759  0.08780760    -0.88600
H641        H  0.35082861  0.21389816  0.24238388     0.35500
H642        H  0.34110317  0.25835706  0.24080018     0.40600
H643        H  0.27647742  0.24390088  0.08485325     0.40300
H644        H  0.28408773  0.19923749  0.08512072     0.35100
C645        C  0.14196544  0.31076584  0.25157980    -0.26600
C646        C  0.15279822  0.34639386  0.24823285    -0.14700
C647        C  0.19023191  0.35488637  0.24734922     0.36000
C648        C  0.21590791  0.32713674  0.24964466    -0.26000
C649        C  0.20497219  0.29142487  0.25284161    -0.15300
C650        C  0.16753556  0.28325575  0.25393344     0.37100
N651        N  0.15464824  0.24723128  0.25603643    -0.89500
H652        H  0.11327742  0.30429301  0.25220290     0.18200
H653        H  0.24460808  0.33341013  0.24844655     0.18200
N654        N  0.20313203  0.39093677  0.24375008    -0.88600
H655        H  0.16325915  0.23607882  0.28018352     0.35500
H656        H  0.16577960  0.23245108  0.23499994     0.40600
H657        H  0.18176509  0.40932419  0.24185549     0.40300
H658        H  0.21729250  0.39242803  0.21968748     0.35100
C659        C  0.13653397  0.98688816  0.42980144    -0.26600
C660        C  0.10490731  0.00838912  0.42749975    -0.14700
C661        C  0.10883208  0.04456635  0.41756938     0.36000
C662        C  0.14391579  0.05928480  0.41527050    -0.26000
C663        C  0.17548345  0.03853770  0.42147717    -0.15300
C664        C  0.17151926  0.00167853  0.42744152     0.37100
N665        N  0.20292654  0.97915101  0.43111666    -0.89500
H666        H  0.13419359  0.95863331  0.43554010     0.18200
H667        H  0.14658458  0.08749651  0.40952686     0.18200
N668        N  0.07733718  0.06665342  0.41127327    -0.88600
H669        H  0.20139534  0.95906687  0.41172344     0.35500
H670        H  0.20202107  0.96701328  0.45618277     0.40600
H671        H  0.06372971  0.05629333  0.38899618     0.40300
H672        H  0.08491688  0.09272335  0.40471789     0.35100
C673        C  0.28378608  0.13110330  0.34044968    -0.26600
C674        C  0.25162235  0.12758310  0.36011609    -0.14700
C675        C  0.22266897  0.15187163  0.35352909     0.36000
C676        C  0.22513986  0.17620038  0.32564534    -0.26000
C677        C  0.25714806  0.18000157  0.30567469    -0.15300
C678        C  0.28741142  0.15786368  0.31430589     0.37100
N679        N  0.32198074  0.16314370  0.29752408    -0.89500
H680        H  0.30645800  0.11326421  0.34591088     0.18200
H681        H  0.20134362  0.19239035  0.31992339     0.18200
N682        N  0.19129627  0.15437703  0.37597388    -0.88600
H683        H  0.34121643  0.14468518  0.30694827     0.35500
H684        H  0.33123079  0.18846789  0.30503218     0.40600
H685        H  0.19969888  0.15567339  0.40263737     0.40300
H686        H  0.17455931  0.13233085  0.37202172     0.35100
C687        C  0.96338818  0.42297279  0.89277220    -0.26600
C688        C  0.99959113  0.43418665  0.89447702    -0.14700
C689        C  0.01891118  0.43828298  0.86193397     0.36000
C690        C  0.00059145  0.43209871  0.82905324    -0.26000
C691        C  0.96338792  0.42290228  0.82795375    -0.15300
C692        C  0.94496772  0.41877145  0.86051498     0.37100
N693        N  0.90664073  0.41248045  0.86135889    -0.89500
H694        H  0.94769276  0.42010254  0.91696192     0.18200
H695        H  0.01519892  0.43504408  0.80420899     0.18200
N696        N  0.05625450  0.44951029  0.86207463    -0.88600
H697        H  0.90226619  0.38906644  0.87590011     0.35500
H698        H  0.89433842  0.43365808  0.87512014     0.40600
H699        H  0.06589742  0.45182916  0.83596738     0.40300
H700        H  0.07162272  0.42930381  0.87427266     0.35100
C701        C  0.97432611  0.58239218  0.14013649    -0.26600
C702        C  0.98819975  0.54756541  0.13618943    -0.14700
C703        C  0.98887391  0.52510178  0.16636546     0.36000
C704        C  0.97029933  0.53543915  0.19761322    -0.26000
C705        C  0.95344005  0.56923799  0.20073081    -0.15300
C706        C  0.95882149  0.59408036  0.17258113     0.37100
N707        N  0.94846334  0.63097888  0.17677383    -0.89500
H708        H  0.97471474  0.60027741  0.11742372     0.18200
H709        H  0.96769798  0.51606899  0.21882372     0.18200
N710        N  0.00632280  0.49079751  0.16449481    -0.88600
H711        H  0.95442964  0.64556132  0.15377172     0.35500
H712        H  0.96436644  0.64165159  0.19736389     0.40600
H713        H  0.03406223  0.49512077  0.16052581     0.40300
H714        H  0.00428375  0.47765607  0.18898214     0.35100
C715        C  0.05538682  0.41846926  0.11429470    -0.26600
C716        C  0.01735555  0.42163329  0.11315164    -0.14700
C717        C  0.99757633  0.41359749  0.14432215     0.36000
C718        C  0.01629462  0.40557787  0.17641387    -0.26000
C719        C  0.05453276  0.40625727  0.17810510    -0.15300
C720        C  0.07402856  0.41217614  0.14635505     0.37100
N721        N  0.11292344  0.41422914  0.14685338    -0.89500
H722        H  0.07126238  0.42389073  0.09076611     0.18200
H723        H  0.00088884  0.40024149  0.20035678     0.18200
N724        N  0.95866408  0.41503120  0.14391945    -0.88600
H725        H  0.12306807  0.39525848  0.12887887     0.35500
H726        H  0.12034763  0.43956887  0.13777678     0.40600
H727        H  0.95029178  0.43381115  0.16293518     0.40300
H728        H  0.94902994  0.39000596  0.15171780     0.35100
C729        C  0.12001703  0.56296444  0.05913995    -0.26600
C730        C  0.11544413  0.55778531  0.02241709    -0.14700
C731        C  0.14661619  0.55973123  0.00013450     0.36000
C732        C  0.18081225  0.56794034  0.01526730    -0.26000
C733        C  0.18498646  0.57286253  0.05234981    -0.15300
C734        C  0.15391449  0.56927049  0.07426534     0.37100
N735        N  0.15604429  0.56899047  0.11244775    -0.89500
H736        H  0.09726675  0.55983018  0.07709929     0.18200
H737        H  0.20431701  0.56978387  0.99809682     0.18200
N738        N  0.14473442  0.55308337  0.96244668    -0.88600
H739        H  0.16188718  0.59459366  0.12179487     0.35500
H740        H  0.17635607  0.55104819  0.12049065     0.40600
H741        H  0.12475643  0.56971952  0.95127932     0.40300
H742        H  0.13778228  0.52637161  0.95807691     0.35100
C743        C  0.84534259  0.45280951  0.99484619    -0.26600
C744        C  0.87793477  0.43875804  0.00870445    -0.14700
C745        C  0.87604686  0.41595880  0.03863330     0.36000
C746        C  0.84358403  0.41256295  0.05725069    -0.26000
C747        C  0.81054577  0.42756241  0.04492007    -0.15300
C748        C  0.81149416  0.44604634  0.01158574     0.37100
N749        N  0.77851662  0.45771479  0.99447169    -0.89500
H750        H  0.84630125  0.46988146  0.97153843     0.18200
H751        H  0.84547830  0.39877520  0.08246188     0.18200
N752        N  0.90768727  0.39721249  0.05151201    -0.88600
H753        H  0.78417428  0.47033724  0.97028634     0.35500
H754        H  0.76351831  0.43488605  0.98815055     0.40600
H755        H  0.90202851  0.36984831  0.05152874     0.40300
H756        H  0.91268350  0.40516234  0.07787076     0.35100
C757        C  0.94419588  0.15663220  0.43325473    -0.26600
C758        C  0.96174683  0.18918254  0.43986457    -0.14700
C759        C  0.99802206  0.18776208  0.45285300     0.36000
C760        C  0.01481924  0.15435849  0.46083742    -0.26000
C761        C  0.99657863  0.12183049  0.45501876    -0.15300
C762        C  0.96112807  0.12357594  0.43974100     0.37100
N763        N  0.94149203  0.09176960  0.43090605    -0.89500
H764        H  0.91646818  0.15656266  0.42330453     0.18200
H765        H  0.04202875  0.15399609  0.47206797     0.18200
N766        N  0.01829694  0.21997648  0.45731015    -0.88600
H767        H  0.93511224  0.09250960  0.40368050     0.35500
H768        H  0.91716536  0.09202150  0.44520978     0.40600
H769        H  0.04129130  0.21826312  0.44112105     0.40300
H770        H  0.02717783  0.22101383  0.48380981     0.35100
C771        C  0.64145074  0.17641410  0.25158270    -0.26600
C772        C  0.65231107  0.14161197  0.24186230    -0.14700
C773        C  0.68956346  0.13473306  0.23583181     0.36000
C774        C  0.71497928  0.16254318  0.23944985    -0.26000
C775        C  0.70393690  0.19728231  0.24898496    -0.15300
C776        C  0.66669442  0.20409898  0.25521308     0.37100
N777        N  0.65387416  0.23863760  0.26621088    -0.89500
H778        H  0.61298979  0.18216391  0.25644321     0.18200
H779        H  0.74349986  0.15701000  0.23466959     0.18200
N780        N  0.70186536  0.09939956  0.22705909    -0.88600
H781        H  0.65968627  0.25717780  0.24627155     0.35500
H782        H  0.66783875  0.24596533  0.28946592     0.40600
H783        H  0.72063596  0.09131859  0.24655363     0.40300
H784        H  0.71540032  0.10058638  0.20263874     0.35100
C785        C  0.75744014  0.32860492  0.13642188    -0.26600
C786        C  0.74996089  0.36407486  0.14677329    -0.14700
C787        C  0.74615076  0.37168388  0.18355077     0.36000
C788        C  0.74957468  0.34401372  0.20891669    -0.26000
C789        C  0.75676540  0.30859603  0.19837890    -0.15300
C790        C  0.76088875  0.30105646  0.16158986     0.37100
N791        N  0.76965221  0.26583811  0.14902776    -0.89500
H792        H  0.76056107  0.32213559  0.10839717     0.18200
H793        H  0.74632884  0.35019640  0.23699841     0.18200
N794        N  0.73972399  0.40760758  0.19536871    -0.88600
H795        H  0.74851224  0.24854175  0.15537180     0.35500
H796        H  0.79332373  0.25712761  0.16203839     0.40600
H797        H  0.76086551  0.41477202  0.21269342     0.40300
H798        H  0.71551198  0.40800138  0.20983900     0.35100
C799        C  0.85213554  0.22110620  0.35373448    -0.26600
C800        C  0.86633472  0.25372525  0.36643063    -0.14700
C801        C  0.85568435  0.28532836  0.34830297     0.36000
C802        C  0.82946907  0.28407584  0.32071793    -0.26000
C803        C  0.81496837  0.25154118  0.30818764    -0.15300
C804        C  0.82821358  0.21947853  0.32409210     0.37100
N805        N  0.81839216  0.18520176  0.30960787    -0.89500
H806        H  0.85993233  0.19638359  0.36674326     0.18200
H807        H  0.82058418  0.30914648  0.30911354     0.18200
N808        N  0.87225201  0.31885651  0.35675075    -0.88600
H809        H  0.83050765  0.16444160  0.32418157     0.35500
H810        H  0.82891827  0.18364881  0.28379033     0.40600
H811        H  0.85173117  0.33691977  0.36393492     0.40300
H812        H  0.88470526  0.32850436  0.33371645     0.35100
C813        C  0.05287804  0.54116924  0.88277421    -0.26600
C814        C  0.01504468  0.53612535  0.87964834    -0.14700
C815        C  0.99917015  0.53713704  0.84527757     0.36000
C816        C  0.02142981  0.54454437  0.81530041    -0.26000
C817        C  0.05928071  0.55037246  0.81902529    -0.15300
C818        C  0.07490216  0.54731971  0.85344771     0.37100
N819        N  0.11342629  0.54769235  0.85953189    -0.89500
H820        H  0.06639925  0.53885930  0.90845019     0.18200
H821        H  0.00921473  0.54589129  0.78895257     0.18200
N822        N  0.96097872  0.53055165  0.84082274    -0.88600
H823        H  0.12368732  0.57303928  0.85427446     0.35500
H824        H  0.12570131  0.52892043  0.84267652     0.40600
H825        H  0.94691107  0.55124906  0.85364470     0.40300
H826        H  0.95372880  0.53175316  0.81382995     0.35100
C827        C  0.18702994  0.97166801  0.58367803    -0.26600
C828        C  0.20142499  0.94470999  0.56145940    -0.14700
C829        C  0.18345924  0.93704874  0.52893465     0.36000
C830        C  0.15200978  0.95607010  0.51936282    -0.26000
C831        C  0.13737644  0.98292277  0.54133448    -0.15300
C832        C  0.15504039  0.99049270  0.57407139     0.37100
N833        N  0.14025254  0.01611219  0.59853408    -0.89500
H834        H  0.20008513  0.97734465  0.60904937     0.18200
H835        H  0.13738710  0.94785793  0.49568080     0.18200
N836        N  0.19524511  0.90848177  0.50612147    -0.88600
H837        H  0.11409162  0.00800371  0.60546776     0.35500
H838        H  0.13811497  0.04067527  0.58535880     0.40600
H839        H  0.19563532  0.88476811  0.52083988     0.40300
H840        H  0.22164479  0.91382753  0.49763016     0.35100
C841        C  0.21535576  0.65086159  0.76759593    -0.26600
C842        C  0.20336092  0.68443831  0.75482831    -0.14700
C843        C  0.16616335  0.68823917  0.74504211     0.36000
C844        C  0.14274914  0.65844187  0.74683574    -0.26000
C845        C  0.15513960  0.62510590  0.75919526    -0.15300
C846        C  0.19172331  0.62162268  0.77021555     0.37100
N847        N  0.20553584  0.58861217  0.78429696    -0.89500
H848        H  0.24354160  0.64701578  0.77527519     0.18200
H849        H  0.11456837  0.66122415  0.73863582     0.18200
N850        N  0.15198788  0.72239967  0.73398744    -0.88600
H851        H  0.20209503  0.56867258  0.76498386     0.35500
H852        H  0.19008936  0.58187577  0.80659948     0.40600
H853        H  0.15406870  0.73981446  0.75574489     0.40300
H854        H  0.12431815  0.72060789  0.72763798     0.35100
C855        C  0.24558122  0.82967261  0.69893282    -0.26600
C856        C  0.25353889  0.79357550  0.69178277    -0.14700
C857        C  0.26222829  0.78327870  0.65656273     0.36000
C858        C  0.26289318  0.80930107  0.62931540    -0.26000
C859        C  0.25502765  0.84547697  0.63649998    -0.15300
C860        C  0.24616124  0.85554652  0.67171291     0.37100
N861        N  0.23899743  0.89227581  0.68021237    -0.89500
H862        H  0.23922895  0.83789327  0.72595597     0.18200
H863        H  0.26991599  0.80140911  0.60236806     0.18200
N864        N  0.27111330  0.74660673  0.64878400    -0.88600
H865        H  0.25774200  0.90032758  0.69967599     0.35500
H866        H  0.21299958  0.89399271  0.69123626     0.40600
H867        H  0.29501517  0.74025486  0.66268986     0.40300
H868        H  0.27684313  0.74340471  0.62165275     0.35100
C869        C  0.34783909  0.75177783  0.79457290    -0.26600
C870        C  0.31136100  0.75076960  0.80554514    -0.14700
C871        C  0.30362661  0.75221368  0.84243550     0.36000
C872        C  0.33245397  0.75323916  0.86744114    -0.26000
C873        C  0.36888086  0.75301889  0.85640797    -0.15300
C874        C  0.37647846  0.75287200  0.81946425     0.37100
N875        N  0.41297241  0.75458478  0.80647046    -0.89500
H876        H  0.35416903  0.75111806  0.76636372     0.18200
H877        H  0.32653023  0.75398316  0.89573533     0.18200
N878        N  0.26655407  0.75302949  0.85431990    -0.88600
H879        H  0.42732721  0.73209804  0.81537084     0.35500
H880        H  0.42525333  0.77741594  0.81713438     0.40600
H881        H  0.25474277  0.77671412  0.84498300     0.40300
H882        H  0.26549431  0.75409328  0.88223251     0.35100
C883        C  0.57788508  0.88835432  0.03892595    -0.26600
C884        C  0.56566855  0.88817317  0.00325230    -0.14700
C885        C  0.55947146  0.85469598  0.98686793     0.36000
C886        C  0.56512282  0.82269809  0.00620423    -0.26000
C887        C  0.57529530  0.82301373  0.04256427    -0.15300
C888        C  0.58109879  0.85681884  0.05893417     0.37100
N889        N  0.58784310  0.85986385  0.09654715    -0.89500
H890        H  0.58202362  0.91347166  0.05279820     0.18200
H891        H  0.56084122  0.79748370  0.99261742     0.18200
N892        N  0.54663303  0.85285661  0.95081780    -0.88600
H893        H  0.61235073  0.87344376  0.10024159     0.35500
H894        H  0.56708826  0.87542655  0.10773739     0.40600
H895        H  0.52200271  0.83907487  0.95068290     0.40300
H896        H  0.56536717  0.83784091  0.93609116     0.35100
C897        C  0.44993130  0.88287641  0.94701527    -0.26600
C898        C  0.45098004  0.88495715  0.98429007    -0.14700
C899        C  0.44869599  0.85331387  0.00465466     0.36000
C900        C  0.44206128  0.82055564  0.98698761    -0.26000
C901        C  0.43954662  0.81887573  0.94945963    -0.15300
C902        C  0.44517385  0.85047535  0.92950166     0.37100
N903        N  0.44865494  0.85035113  0.89141416    -0.89500
H904        H  0.45446754  0.90655509  0.93102094     0.18200
H905        H  0.43886491  0.79633363  0.00243636     0.18200
N906        N  0.45235674  0.85460958  0.04291092    -0.88600
H907        H  0.42374885  0.84433280  0.87948820     0.35500
H908        H  0.46798287  0.83108960  0.88419106     0.40600
H909        H  0.47938192  0.86073535  0.04897109     0.40300
H910        H  0.44784077  0.82933288  0.05385647     0.35100
C911        C  0.57725835  0.04469191  0.10868716    -0.26600
C912        C  0.56531303  0.00931279  0.10923789    -0.14700
C913        C  0.56500793  0.99089495  0.14228365     0.36000
C914        C  0.57615694  0.00896403  0.17367763    -0.26000
C915        C  0.58596376  0.04548652  0.17295866    -0.15300
C916        C  0.58596608  0.06320173  0.13954362     0.37100
N917        N  0.59081433  0.10097612  0.13578718    -0.89500
H918        H  0.57731639  0.05968704  0.08395865     0.18200
H919        H  0.57578198  0.99478109  0.19886965     0.18200
N920        N  0.55232747  0.95477699  0.14453449    -0.88600
H921        H  0.61807122  0.10754424  0.13918881     0.35500
H922        H  0.57444345  0.11457630  0.15414794     0.40600
H923        H  0.53036720  0.95432010  0.16212807     0.40300
H924        H  0.57316383  0.93910415  0.15559603     0.35100
C925        C  0.44003023  0.95377162  0.10969195    -0.26600
C926        C  0.44638485  0.99102806  0.10949279    -0.14700
C927        C  0.44041425  0.01023448  0.14154059     0.36000
C928        C  0.42808327  0.99202004  0.17211885    -0.26000
C929        C  0.42217489  0.95469585  0.17197225    -0.15300
C930        C  0.42890313  0.93557905  0.14014850     0.37100
N931        N  0.42721917  0.89732592  0.13830121    -0.89500
H932        H  0.44519707  0.93769537  0.08615330     0.18200
H933        H  0.42380046  0.00704823  0.19651490     0.18200
N934        N  0.44707697  0.04782549  0.14417063    -0.88600
H935        H  0.40046262  0.88911952  0.14200197     0.35500
H936        H  0.44369972  0.88654610  0.15844982     0.40600
H937        H  0.43136936  0.06089209  0.12477287     0.40300
H938        H  0.47455886  0.05235079  0.13904476     0.35100
C939        C  0.42444052  0.10949255  0.03029439    -0.26600
C940        C  0.43895888  0.10995635  0.99561115    -0.14700
C941        C  0.44236524  0.14404653  0.97875502     0.36000
C942        C  0.43117390  0.17543732  0.99666015    -0.26000
C943        C  0.41903947  0.17471061  0.03216740    -0.15300
C944        C  0.41683137  0.14099899  0.04920241     0.37100
N945        N  0.40972221  0.13844118  0.08670014    -0.89500
H946        H  0.42252727  0.08454244  0.04478724     0.18200
H947        H  0.43337025  0.20080731  0.98296870     0.18200
N948        N  0.45864513  0.14849793  0.94446361    -0.88600
H949        H  0.43209926  0.12609089  0.09897899     0.35500
H950        H  0.38713062  0.12199946  0.09019090     0.40600
H951        H  0.48563482  0.13951333  0.94522977     0.40300
H952        H  0.44391035  0.13434333  0.92550965     0.35100
C953        C  0.59571917  0.12181801  0.97558481    -0.26600
C954        C  0.56353762  0.11969186  0.99540982    -0.14700
C955        C  0.54437486  0.15206541  0.00148759     0.36000
C956        C  0.55241355  0.18268990  0.98105216    -0.26000
C957        C  0.58268304  0.18393171  0.95777028    -0.15300
C958        C  0.60681419  0.15390255  0.95919204     0.37100
N959        N  0.64306047  0.15605168  0.94533695    -0.89500
H960        H  0.61262734  0.09813913  0.97288243     0.18200
H961        H  0.53437790  0.20536559  0.98391133     0.18200
N962        N  0.51801643  0.15543497  0.02924981    -0.88600
H963        H  0.65718798  0.13196254  0.94897807     0.35500
H964        H  0.65686999  0.17539216  0.96026712     0.40600
H965        H  0.53057976  0.14851145  0.05336722     0.40300
H966        H  0.49699301  0.13761880  0.02469854     0.35100
C967        C  0.02950278  0.17441359  0.56928390    -0.26600
C968        C  0.06580673  0.17596267  0.58116153    -0.14700
C969        C  0.08420909  0.14337687  0.58857074     0.36000
C970        C  0.06616766  0.11050290  0.58337059    -0.26000
C971        C  0.03039653  0.10886532  0.56975685    -0.15300
C972        C  0.01171536  0.14157565  0.56334277     0.37100
N973        N  0.97541074  0.14157912  0.54891407    -0.89500
H974        H  0.01492651  0.19914823  0.56407034     0.18200
H975        H  0.08108554  0.08582632  0.58785493     0.18200
N976        N  0.12172595  0.14350768  0.59960238    -0.88600
H977        H  0.96636642  0.16766369  0.54386249     0.35500
H978        H  0.95832590  0.13118382  0.56846848     0.40600
H979        H  0.13690936  0.15394131  0.57858456     0.40300
H980        H  0.13124690  0.11745596  0.60388584     0.35100
C981        C  0.41792085  0.07535472  0.83487928    -0.26600
C982        C  0.42797342  0.05956352  0.80203562    -0.14700
C983        C  0.44180587  0.02399553  0.80295271     0.36000
C984        C  0.45022827  0.00791842  0.83628024    -0.26000
C985        C  0.44219039  0.02525515  0.86867320    -0.15300
C986        C  0.42334113  0.05795516  0.86743145     0.37100
N987        N  0.41067352  0.07480925  0.89932790    -0.89500
H988        H  0.40704583  0.10226470  0.83599554     0.18200
H989        H  0.46452486  0.98249484  0.83697469     0.18200
N990        N  0.44751630  0.00437022  0.77044271    -0.88600
H991        H  0.43279410  0.07786411  0.91640001     0.35500
H992        H  0.39250784  0.05738992  0.91163509     0.40600
H993        H  0.42218563  0.00127654  0.75802888     0.40300
H994        H  0.45719321  0.97862665  0.77601966     0.35100
C995        C  0.12356922  0.43875756  0.96931475    -0.26600
C996        C  0.12393319  0.45007821  0.00522109    -0.14700
C997        C  0.15770196  0.45673287  0.02178385     0.36000
C998        C  0.19015086  0.45226237  0.00212403    -0.26000
C999        C  0.18926852  0.44162733  0.96596706    -0.15300
C1000       C  0.15532612  0.43559099  0.94953664     0.37100
N1001       N  0.15276080  0.42746578  0.91217514    -0.89500
H1002       H  0.09822745  0.43373043  0.95539868     0.18200
H1003       H  0.21605464  0.45694764  0.01516279     0.18200
N1004       N  0.15923640  0.46800765  0.05828620    -0.88600
H1005       H  0.13693114  0.44733315  0.89992605     0.35500
H1006       H  0.13919622  0.40312419  0.90927567     0.40600
H1007       H  0.17283903  0.49244648  0.05937986     0.40300
H1008       H  0.17468896  0.44923750  0.07251800     0.35100
C1009       C  0.17891976  0.27784611  0.64355242    -0.26600
C1010       C  0.14553699  0.26129268  0.65084964    -0.14700
C1011       C  0.13812724  0.25081092  0.68626283     0.36000
C1012       C  0.16478240  0.25513473  0.71299226    -0.26000
C1013       C  0.19873617  0.26993396  0.70506569    -0.15300
C1014       C  0.20544168  0.28213958  0.67013495     0.37100
N1015       N  0.23908155  0.29874444  0.66091584    -0.89500
H1016       H  0.18505481  0.28634350  0.61662933     0.18200
H1017       H  0.15933861  0.24592100  0.73983467     0.18200
N1018       N  0.10358356  0.23597116  0.69526172    -0.88600
H1019       H  0.26028668  0.28055598  0.66541930     0.35500
H1020       H  0.24286186  0.32080196  0.67770183     0.40600
H1021       H  0.09188594  0.25208936  0.71498760     0.40300
H1022       H  0.10807765  0.21059126  0.70616004     0.35100
C1023       C  0.34826307  0.22330155  0.75204231    -0.26600
C1024       C  0.31167083  0.21269105  0.75179729    -0.14700
C1025       C  0.30328281  0.17631734  0.74608852     0.36000
C1026       C  0.33150681  0.15149688  0.74022573    -0.26000
C1027       C  0.36809367  0.16200915  0.74036871    -0.15300
C1028       C  0.37644593  0.19841163  0.74648287     0.37100
N1029       N  0.41324073  0.21060849  0.74838829    -0.89500
H1030       H  0.35495547  0.25116115  0.75643725     0.18200
H1031       H  0.32503328  0.12350711  0.73638193     0.18200
N1032       N  0.26613734  0.16461845  0.74703308    -0.88600
H1033       H  0.42572143  0.20551081  0.72392563     0.35500
H1034       H  0.42691095  0.19606130  0.76820604     0.40600
H1035       H  0.25651125  0.16904863  0.77289211     0.40300
H1036       H  0.26456699  0.13709290  0.74241389     0.35100
C1037       C  0.22261987  0.35590735  0.86177114    -0.26600
C1038       C  0.25588294  0.36640955  0.87732940    -0.14700
C1039       C  0.28776756  0.34830255  0.86638650     0.36000
C1040       C  0.28642532  0.32385671  0.83783055    -0.26000
C1041       C  0.25334869  0.31420921  0.82130200    -0.15300
C1042       C  0.22079516  0.32906516  0.83533684     0.37100
N1043       N  0.18587491  0.31660047  0.82335262    -0.89500
H1044       H  0.19763337  0.36890597  0.86992144     0.18200
H1045       H  0.31188586  0.31273534  0.82854010     0.18200
N1046       N  0.32160607  0.35379525  0.88464503    -0.88600
H1047       H  0.16484180  0.33017163  0.83637650     0.35500
H1048       H  0.18383849  0.28969462  0.83060058     0.40600
H1049       H  0.34068559  0.36241262  0.86601018     0.40300
H1050       H  0.33048968  0.32916750  0.89472002     0.35100
C1051       C  0.81436113  0.55757478  0.97306914    -0.26600
C1052       C  0.81484137  0.56190595  0.93574600    -0.14700
C1053       C  0.84892918  0.56437238  0.91861691     0.36000
C1054       C  0.88122768  0.56250470  0.93892866    -0.26000
C1055       C  0.88091819  0.55630025  0.97599820    -0.15300
C1056       C  0.84680858  0.55453593  0.99316648     0.37100
N1057       N  0.84481222  0.54907935  0.03092836    -0.89500
H1058       H  0.78856501  0.55618061  0.98679977     0.18200
H1059       H  0.90694229  0.56334146  0.92503976     0.18200
N1060       N  0.85084280  0.56696316  0.88037700    -0.88600
H1061       H  0.83033294  0.57050252  0.04199155     0.35500
H1062       H  0.83002321  0.52573808  0.03544749     0.40600
H1063       H  0.84031154  0.54331388  0.86968152     0.40300
H1064       H  0.87783140  0.56849480  0.87194951     0.35100
C1065       C  0.93309425  0.83718816  0.58492380    -0.26600
C1066       C  0.95598437  0.80706591  0.58117305    -0.14700
C1067       C  0.99339368  0.81311651  0.57492821     0.36000
C1068       C  0.00611191  0.84859050  0.57068193    -0.26000
C1069       C  0.98255142  0.87852931  0.57316538    -0.15300
C1070       C  0.94566713  0.87212875  0.58176976     0.37100
N1071       N  0.91940216  0.90027321  0.58615402    -0.89500
H1072       H  0.90420144  0.83385007  0.58899799     0.18200
H1073       H  0.03437158  0.85267761  0.56391599     0.18200
N1074       N  0.01836602  0.78351194  0.57268987    -0.88600
H1075       H  0.91350969  0.91183018  0.56145734     0.35500
H1076       H  0.92963123  0.91933600  0.60399809     0.40600
H1077       H  0.01916630  0.77115856  0.59769808     0.40300
H1078       H  0.04468695  0.79244810  0.56755366     0.35100
C1079       C  0.73946111  0.63651098  0.77794593    -0.26600
C1080       C  0.73726318  0.67300944  0.78678131    -0.14700
C1081       C  0.73592337  0.68315601  0.82316229     0.36000
C1082       C  0.73664505  0.65661847  0.84975331    -0.26000
C1083       C  0.73884254  0.62026628  0.84078601    -0.15300
C1084       C  0.74024711  0.61018154  0.80448101     0.37100
N1085       N  0.74340196  0.57345137  0.79392226    -0.89500
H1086       H  0.74068667  0.62841901  0.75017923     0.18200
H1087       H  0.73609935  0.66428041  0.87766260     0.18200
N1088       N  0.73483219  0.72033287  0.83300563    -0.88600
H1089       H  0.72090341  0.55965412  0.80359239     0.35500
H1090       H  0.76685006  0.56268280  0.80573083     0.40600
H1091       H  0.75919606  0.73184641  0.82479846     0.40300
H1092       H  0.73381647  0.72319803  0.86076888     0.35100
C1093       C  0.83370185  0.72715744  0.69413529    -0.26600
C1094       C  0.79816369  0.72646399  0.68029924    -0.14700
C1095       C  0.79271060  0.72804731  0.64296829     0.36000
C1096       C  0.82294836  0.73102516  0.62034886    -0.26000
C1097       C  0.85837190  0.73254853  0.63435232    -0.15300
C1098       C  0.86371563  0.73022652  0.67164797     0.37100
N1099       N  0.89933864  0.73018999  0.68733692    -0.89500
H1100       H  0.83812961  0.72593839  0.72273894     0.18200
H1101       H  0.81894125  0.73232832  0.59169544     0.18200
N1102       N  0.75657368  0.72639250  0.62824425    -0.88600
H1103       H  0.91199324  0.75435390  0.68138488     0.35500
H1104       H  0.91441866  0.70931041  0.67600377     0.40600
H1105       H  0.74599076  0.70129251  0.63448469     0.40300
H1106       H  0.75727882  0.72794298  0.60039879     0.35100
C1107       C  0.59177554  0.92245991  0.83850122    -0.26600
C1108       C  0.59428345  0.94531899  0.80891856    -0.14700
C1109       C  0.59186458  0.98264168  0.81447521     0.36000
C1110       C  0.58377995  0.99601091  0.84873295    -0.26000
C1111       C  0.57805610  0.97257818  0.87732665    -0.15300
C1112       C  0.58369507  0.93572601  0.87234636     0.37100
N1113       N  0.57818036  0.91132277  0.90116293    -0.89500
H1114       H  0.59345664  0.89371292  0.83505644     0.18200
H1115       H  0.57889695  0.02441859  0.85222027     0.18200
N1116       N  0.59674818  0.00693358  0.78544563    -0.88600
H1117       H  0.60204223  0.89637855  0.90471127     0.35500
H1118       H  0.55748093  0.89379673  0.89354026     0.40600
H1119       H  0.61807735  0.02409332  0.79213077     0.40300
H1120       H  0.57307689  0.02237530  0.78284458     0.35100
C1121       C  0.70262151  0.82000349  0.73017329    -0.26600
C1122       C  0.68787691  0.78544858  0.73086927    -0.14700
C1123       C  0.64981728  0.78148222  0.73260052     0.36000
C1124       C  0.62732817  0.81196159  0.73420009    -0.26000
C1125       C  0.64226458  0.84638706  0.73422625    -0.15300
C1126       C  0.68034039  0.85034190  0.73181959     0.37100
N1127       N  0.69706087  0.88481860  0.73026121    -0.89500
H1128       H  0.73181381  0.82347595  0.72883154     0.18200
H1129       H  0.59812217  0.80874256  0.73584018     0.18200
N1130       N  0.63390021  0.74663308  0.73209608    -0.88600
H1131       H  0.69164542  0.89868906  0.75386933     0.35500
H1132       H  0.68561747  0.89898771  0.70889644     0.40600
H1133       H  0.61626530  0.74520229  0.71014734     0.40300
H1134       H  0.61844097  0.74381885  0.75523344     0.35100
C1135       C  0.41271064  0.33760677  0.06246951    -0.26600
C1136       C  0.43647818  0.30793750  0.06283425    -0.14700
C1137       C  0.47421901  0.31408306  0.05917001     0.36000
C1138       C  0.48694304  0.34951718  0.05449875    -0.26000
C1139       C  0.46272883  0.37884332  0.05355851    -0.15300
C1140       C  0.42538124  0.37250615  0.05776147     0.37100
N1141       N  0.39991776  0.40159804  0.05561674    -0.89500
H1142       H  0.38366266  0.33363275  0.06482078     0.18200
H1143       H  0.51554061  0.35404773  0.04955458     0.18200
N1144       N  0.49936046  0.28452481  0.05971180    -0.88600
H1145       H  0.38505415  0.40228069  0.07931067     0.35500
H1146       H  0.38185320  0.39641610  0.03460308     0.40600
H1147       H  0.49830111  0.27298865  0.08509096     0.40300
H1148       H  0.52595286  0.29351150  0.05628808     0.35100
C1149       C  0.50359623  0.35182274  0.93058959    -0.26600
C1150       C  0.52516038  0.38275417  0.93023950    -0.14700
C1151       C  0.56235067  0.37919660  0.92228211     0.36000
C1152       C  0.57773229  0.34522991  0.91661343    -0.26000
C1153       C  0.55680746  0.31394488  0.91890192    -0.15300
C1154       C  0.51904456  0.31757037  0.92486787     0.37100
N1155       N  0.49635801  0.28660800  0.92554210    -0.89500
H1156       H  0.47519684  0.35395128  0.93789352     0.18200
H1157       H  0.60672130  0.34330625  0.91194947     0.18200
N1158       N  0.58515118  0.41010146  0.92218603    -0.88600
H1159       H  0.47617107  0.28976552  0.90601275     0.35500
H1160       H  0.48365413  0.28565856  0.95041411     0.40600
H1161       H  0.59757933  0.41169724  0.89722426     0.40300
H1162       H  0.60554176  0.40647472  0.94143747     0.35100
C1163       C  0.64932589  0.44226278  0.08522816    -0.26600
C1164       C  0.68125964  0.46246544  0.08381906    -0.14700
C1165       C  0.67809867  0.49907015  0.07484036     0.36000
C1166       C  0.64396617  0.51349594  0.06394381    -0.26000
C1167       C  0.61219104  0.49244707  0.06366544    -0.15300
C1168       C  0.61536421  0.45658825  0.07620561     0.37100
N1169       N  0.58504743  0.43290480  0.07871058    -0.89500
H1170       H  0.65070043  0.41418217  0.09224477     0.18200
H1171       H  0.64237195  0.54115291  0.05548108     0.18200
N1172       N  0.70904438  0.52189959  0.07825848    -0.88600
H1173       H  0.57397435  0.42890073  0.05331454     0.35500
H1174       H  0.56575716  0.44390070  0.09596346     0.40600
H1175       H  0.71395605  0.53389111  0.05365822     0.40300
H1176       H  0.70259649  0.54217179  0.09642913     0.35100
C1177       C  0.65500078  0.51628129  0.89286986    -0.26600
C1178       C  0.68309475  0.52481133  0.91740462    -0.14700
C1179       C  0.67729824  0.51661817  0.95379563     0.36000
C1180       C  0.64470010  0.50078493  0.96461958    -0.26000
C1181       C  0.61570123  0.49546929  0.94080171    -0.15300
C1182       C  0.62123133  0.50272127  0.90440352     0.37100
N1183       N  0.59258521  0.49662149  0.87913292    -0.89500
H1184       H  0.65860653  0.52130961  0.86467114     0.18200
H1185       H  0.64095627  0.49563799  0.99271194     0.18200
N1186       N  0.70288089  0.52714787  0.98065452    -0.88600
H1187       H  0.60210753  0.47846665  0.86004599     0.35500
H1188       H  0.58689372  0.52079980  0.86621574     0.40600
H1189       H  0.68979599  0.54510921  0.99778028     0.40300
H1190       H  0.71040059  0.50439574  0.99517816     0.35100
C1191       C  0.50632966  0.69042067  0.05733674    -0.26600
C1192       C  0.54357166  0.69159080  0.06641314    -0.14700
C1193       C  0.56350606  0.65909927  0.06593079     0.36000
C1194       C  0.54615253  0.62671703  0.05803160    -0.26000
C1195       C  0.50908192  0.62523573  0.04876169    -0.15300
C1196       C  0.48910448  0.65773933  0.04826216     0.37100
N1197       N  0.45153579  0.65791884  0.03809990    -0.89500
H1198       H  0.49048086  0.71493890  0.05722282     0.18200
H1199       H  0.56265541  0.60261100  0.05761952     0.18200
N1200       N  0.60205895  0.65888320  0.07178576    -0.88600
H1201       H  0.43658298  0.66885536  0.05915017     0.35500
H1202       H  0.44845161  0.67471946  0.01598772     0.40600
H1203       H  0.60779917  0.64192355  0.09327600     0.40300
H1204       H  0.61451072  0.64819320  0.04908758     0.35100
C1205       C  0.46577644  0.62262038  0.93027836    -0.26600
C1206       C  0.50200896  0.62157026  0.94262943    -0.14700
C1207       C  0.52062712  0.65430944  0.94616278     0.36000
C1208       C  0.50300503  0.68682296  0.93669894    -0.26000
C1209       C  0.46627517  0.68757939  0.92530677    -0.15300
C1210       C  0.44753397  0.65476026  0.92336034     0.37100
N1211       N  0.40911686  0.65378392  0.91672023    -0.89500
H1212       H  0.45009174  0.59826942  0.92815755     0.18200
H1213       H  0.51799201  0.71156759  0.93896098     0.18200
N1214       N  0.55680798  0.65494797  0.96039573    -0.88600
H1215       H  0.39664050  0.64183681  0.93864605     0.35500
H1216       H  0.40445550  0.63760792  0.89436814     0.40600
H1217       H  0.55667819  0.67099877  0.98328380     0.40300
H1218       H  0.57359762  0.66704307  0.94158467     0.35100
C1219       C  0.35445055  0.49106784  0.05593752    -0.26600
C1220       C  0.38655549  0.51133556  0.05914055    -0.14700
C1221       C  0.38395431  0.54519915  0.07602305     0.36000
C1222       C  0.34999156  0.55921947  0.08569040    -0.26000
C1223       C  0.31746475  0.54021981  0.08061593    -0.15300
C1224       C  0.32031385  0.50454353  0.06734015     0.37100
N1225       N  0.28980350  0.48081982  0.06590657    -0.89500
H1226       H  0.35565549  0.46480930  0.04373352     0.18200
H1227       H  0.34926458  0.58639751  0.09573295     0.18200
N1228       N  0.41544021  0.56689775  0.08166071    -0.88600
H1229       H  0.28172732  0.47832453  0.03921405     0.35500
H1230       H  0.26795517  0.49065337  0.08068654     0.40600
H1231       H  0.41769191  0.57223148  0.10899479     0.40300
H1232       H  0.41127368  0.59125732  0.06855466     0.35100
C1233       C  0.37674191  0.49502583  0.90460407    -0.26600
C1234       C  0.38242730  0.51510915  0.93575914    -0.14700
C1235       C  0.35164202  0.52444052  0.95609499     0.36000
C1236       C  0.31868246  0.50612598  0.95075642    -0.26000
C1237       C  0.31418513  0.48147506  0.92242064    -0.15300
C1238       C  0.34228625  0.48063340  0.89631395     0.37100
N1239       N  0.33583822  0.46621229  0.86127227    -0.89500
H1240       H  0.39935125  0.49017877  0.88680061     0.18200
H1241       H  0.29744533  0.51074640  0.96999637     0.18200
N1242       N  0.35369235  0.55217957  0.98240577    -0.88600
H1243       H  0.35903951  0.46831221  0.84542780     0.35500
H1244       H  0.31565195  0.48190188  0.84917799     0.40600
H1245       H  0.34443745  0.54201498  0.00649072     0.40300
H1246       H  0.33553571  0.57244614  0.97481545     0.35100
C1247       C  0.09863282  0.45003775  0.33277802    -0.26600
C1248       C  0.07321805  0.43303777  0.31012652    -0.14700
C1249       C  0.03795690  0.42708130  0.32279581     0.36000
C1250       C  0.02866123  0.43790569  0.35728490    -0.26000
C1251       C  0.05391835  0.45444643  0.38051712    -0.15300
C1252       C  0.08941619  0.46072830  0.36787608     0.37100
N1253       N  0.11605853  0.47729220  0.39060328    -0.89500
H1254       H  0.12604160  0.45420162  0.32328065     0.18200
H1255       H  0.00111339  0.43278216  0.36585932     0.18200
N1256       N  0.01179932  0.40844732  0.30132860    -0.88600
H1257       H  0.14058719  0.48041539  0.37701703     0.35500
H1258       H  0.12139906  0.45977464  0.41172841     0.40600
H1259       H  0.98901489  0.42502252  0.29812631     0.40300
H1260       H  0.00377213  0.38559503  0.31517181     0.35100
C1261       C  0.93257149  0.49972901  0.36858743    -0.26600
C1262       C  0.93443258  0.52218309  0.39862021    -0.14700
C1263       C  0.92583068  0.55872412  0.39492008     0.36000
C1264       C  0.91688528  0.57245397  0.36104878    -0.26000
C1265       C  0.91721462  0.55053131  0.33046704    -0.15300
C1266       C  0.92409500  0.51349821  0.33450277     0.37100
N1267       N  0.92348540  0.49022948  0.30391144    -0.89500
H1268       H  0.94048163  0.47188181  0.37128264     0.18200
H1269       H  0.91163623  0.60085484  0.35821741     0.18200
N1270       N  0.92882625  0.58215764  0.42526236    -0.88600
H1271       H  0.89689836  0.49013509  0.29386460     0.35500
H1272       H  0.92958446  0.46393256  0.31136972     0.40600
H1273       H  0.90949066  0.57417331  0.44391786     0.40300
H1274       H  0.92228365  0.60844995  0.41813344     0.35100
C1275       C  0.08143609  0.52640671  0.62829801    -0.26600
C1276       C  0.07754157  0.48896021  0.62635396    -0.14700
C1277       C  0.08549490  0.46891283  0.65758568     0.36000
C1278       C  0.09537353  0.48673443  0.68962845    -0.26000
C1279       C  0.09716834  0.52442872  0.69164330    -0.15300
C1280       C  0.09001995  0.54415334  0.66007252     0.37100
N1281       N  0.08809914  0.58248489  0.65971611    -0.89500
H1282       H  0.07522645  0.54287587  0.60527304     0.18200
H1283       H  0.10067979  0.47103870  0.71339222     0.18200
N1284       N  0.08340105  0.43070349  0.65781525    -0.88600
H1285       H  0.11396148  0.59313233  0.66360800     0.35500
H1286       H  0.07071439  0.59120322  0.67994748     0.40600
H1287       H  0.10019998  0.42073986  0.63764589     0.40300
H1288       H  0.05664303  0.42323055  0.65226869     0.35100
C1289       C  0.98859897  0.49144516  0.66397992    -0.26600
C1290       C  0.96456584  0.49506393  0.63515467    -0.14700
C1291       C  0.92874951  0.48242275  0.63888034     0.36000
C1292       C  0.91812564  0.46593491  0.67112325    -0.26000
C1293       C  0.94334821  0.45923669  0.69897593    -0.15300
C1294       C  0.97920677  0.47200354  0.69456405     0.37100
N1295       N  0.00717598  0.46315172  0.71973725    -0.89500
H1296       H  0.01611916  0.50078851  0.66147273     0.18200
H1297       H  0.89028235  0.45724087  0.67381663     0.18200
N1298       N  0.90361344  0.48551070  0.60952958    -0.88600
H1299       H  0.01813758  0.48699548  0.72891285     0.35500
H1300       H  0.02750969  0.44864808  0.70654938     0.40600
H1301       H  0.89911162  0.51275236  0.60499891     0.40300
H1302       H  0.87848401  0.47455764  0.61623653     0.35100
C1303       C  0.03699318  0.34087794  0.50858573    -0.26600
C1304       C  0.06144472  0.36942682  0.50565183    -0.14700
C1305       C  0.09774733  0.36375135  0.51657681     0.36000
C1306       C  0.10801404  0.33112474  0.53275305    -0.26000
C1307       C  0.08229457  0.30417658  0.53969337    -0.15300
C1308       C  0.04659736  0.30912025  0.52643193     0.37100
N1309       N  0.01900965  0.28339945  0.53361716    -0.89500
H1310       H  0.00910117  0.34437727  0.50001336     0.18200
H1311       H  0.13590059  0.32770462  0.54163529     0.18200
N1312       N  0.12405281  0.39142785  0.51222078    -0.88600
H1313       H  0.00718388  0.27622009  0.50929138     0.35500
H1314       H  0.99910752  0.29564578  0.54921965     0.40600
H1315       H  0.14521823  0.38123946  0.49664230     0.40300
H1316       H  0.13469062  0.39773147  0.53739374     0.35100
C1317       C  0.93133106  0.31646893  0.50945780    -0.26600
C1318       C  0.92440314  0.31709146  0.47226222    -0.14700
C1319       C  0.92498991  0.35064490  0.45489844     0.36000
C1320       C  0.93276251  0.38188023  0.47413109    -0.26000
C1321       C  0.94202265  0.38116132  0.51057448    -0.15300
C1322       C  0.94018175  0.34815257  0.52872381     0.37100
N1323       N  0.94783482  0.34685028  0.56634068    -0.89500
H1324       H  0.93053705  0.29115632  0.52341105     0.18200
H1325       H  0.93412897  0.40675268  0.45942086     0.18200
N1326       N  0.92010844  0.35317139  0.41701927    -0.88600
H1327       H  0.94463869  0.32081741  0.57591399     0.35500
H1328       H  0.92826022  0.36256026  0.57918431     0.40600
H1329       H  0.94352617  0.36439710  0.40613946     0.40300
H1330       H  0.89833871  0.37059709  0.41199390     0.35100
C1331       C  0.96666534  0.63519735  0.50082612    -0.26600
C1332       C  0.95952062  0.60362565  0.52013615    -0.14700
C1333       C  0.94287274  0.60730641  0.55392648     0.36000
C1334       C  0.93549030  0.64122207  0.56798120    -0.26000
C1335       C  0.94151491  0.67284971  0.54869694    -0.15300
C1336       C  0.95711005  0.66947591  0.51439222     0.37100
N1337       N  0.96276070  0.70043292  0.49287143    -0.89500
H1338       H  0.97978853  0.63337312  0.47506853     0.18200
H1339       H  0.92481679  0.64247637  0.59483445     0.18200
N1340       N  0.93379999  0.57672530  0.57496072    -0.88600
H1341       H  0.94820241  0.69715496  0.46900260     0.35500
H1342       H  0.99028993  0.70128700  0.48661714     0.40600
H1343       H  0.90578508  0.57733662  0.57950454     0.32100
H1344       H  0.94695851  0.57898111  0.59967798     0.35100
C1345       C  0.09158470  0.63274398  0.44633907    -0.26600
C1346       C  0.08523695  0.66463540  0.46539157    -0.14700
C1347       C  0.07621373  0.66171810  0.50206128     0.36000
C1348       C  0.07166297  0.62773452  0.51780107    -0.26000
C1349       C  0.07734626  0.59597892  0.49836719    -0.15300
C1350       C  0.08849502  0.59895793  0.46236170     0.37100
N1351       N  0.09541520  0.56772149  0.44117163    -0.89500
H1352       H  0.09812854  0.63368756  0.41822490     0.18200
H1353       H  0.06314087  0.62626077  0.54539197     0.18200
N1354       N  0.07227365  0.69299236  0.52384914    -0.88600
H1355       H  0.12203608  0.56910917  0.43167724     0.35500
H1356       H  0.07772403  0.56809221  0.41920933     0.40600
H1357       H  0.09098425  0.69121942  0.54490816     0.40300
H1358       H  0.04614266  0.69295602  0.53469110     0.35100
C1359       C  0.45256126  0.10325000  0.64287257    -0.26600
C1360       C  0.46895026  0.09566257  0.67608338    -0.14700
C1361       C  0.50410933  0.07978409  0.67563111     0.36000
C1362       C  0.51943321  0.06787692  0.64304905    -0.26000
C1363       C  0.50113797  0.07253887  0.61022397    -0.15300
C1364       C  0.46817751  0.09267782  0.61049031     0.37100
N1365       N  0.44898106  0.10231925  0.57849087    -0.89500
H1366       H  0.42601104  0.11583144  0.64164997     0.18200
H1367       H  0.54520925  0.05369698  0.64373384     0.18200
N1368       N  0.52469303  0.07593985  0.70796725    -0.88600
H1369       H  0.43767580  0.07951129  0.56692083     0.35500
H1370       H  0.46702708  0.11442189  0.56084571     0.40600
H1371       H  0.53103069  0.04882571  0.71125152     0.40300
H1372       H  0.54907940  0.08979753  0.70500441     0.35100
C1373       C  0.49699554  0.95268599  0.64850994    -0.26600
C1374       C  0.51575686  0.95121671  0.61591447    -0.14700
C1375       C  0.55163761  0.93711441  0.61597037     0.36000
C1376       C  0.56864029  0.92783938  0.64802398    -0.26000
C1377       C  0.55058634  0.92990051  0.68076965    -0.15300
C1378       C  0.51366174  0.94150252  0.68070248     0.37100
N1379       N  0.49190514  0.94096707  0.71224286    -0.89500
H1380       H  0.46936806  0.96288293  0.64910135     0.18200
H1381       H  0.59671231  0.91889794  0.64707439     0.18200
N1382       N  0.57165021  0.93249760  0.58355508    -0.88600
H1383       H  0.50159008  0.95990712  0.73024994     0.35500
H1384       H  0.49380345  0.91552901  0.72373589     0.40600
H1385       H  0.57892566  0.90551841  0.58123971     0.40300
H1386       H  0.59551089  0.94747677  0.58542482     0.35100
C1387       C  0.32995790  0.09113244  0.47369151    -0.26600
C1388       C  0.30647629  0.06244900  0.46504302    -0.14700
C1389       C  0.31853875  0.02737948  0.47406383     0.36000
C1390       C  0.35324595  0.02207839  0.48915537    -0.26000
C1391       C  0.37790588  0.05026304  0.49378785    -0.15300
C1392       C  0.36556985  0.08533315  0.48664042     0.37100
N1393       N  0.38885570  0.11550284  0.49162822    -0.89500
H1394       H  0.32145954  0.11837727  0.46822779     0.18200
H1395       H  0.36201704  0.99504635  0.49461616     0.18200
N1396       N  0.29787912  0.99610507  0.46567120    -0.88600
H1397       H  0.41150460  0.11246095  0.47517896     0.35500
H1398       H  0.39778306  0.11563088  0.51817348     0.40600
H1399       H  0.29061186  0.99649082  0.43864454     0.40300
H1400       H  0.27473405  0.99553041  0.48155991     0.35100
C1401       C  0.36945360  0.92249450  0.49341429    -0.26600
C1402       C  0.40037132  0.92574837  0.51555860    -0.14700
C1403       C  0.39771355  0.91251706  0.55093310     0.36000
C1404       C  0.36361604  0.90398536  0.56497640    -0.26000
C1405       C  0.33177695  0.90587141  0.54411274    -0.15300
C1406       C  0.33564966  0.91199972  0.50698695     0.37100
N1407       N  0.30650052  0.90623273  0.48212196    -0.89500
H1408       H  0.37108471  0.92972484  0.46547159     0.18200
H1409       H  0.36200283  0.89720811  0.59302610     0.18200
N1410       N  0.42861263  0.90793941  0.57372435    -0.88600
H1411       H  0.28587857  0.92496146  0.48619075     0.35500
H1412       H  0.29616063  0.88060497  0.48619109     0.40600
H1413       H  0.43834583  0.93368874  0.58059726     0.40300
H1414       H  0.44835888  0.89379692  0.56032455     0.35100
C1415       C  0.55991024  0.04881690  0.36129963    -0.26600
C1416       C  0.52321739  0.05734127  0.36799775    -0.14700
C1417       C  0.50210441  0.07245682  0.34009479     0.36000
C1418       C  0.51850295  0.07989282  0.30695560    -0.26000
C1419       C  0.55547994  0.07196698  0.30111465    -0.15300
C1420       C  0.57595978  0.05559435  0.32853261     0.37100
N1421       N  0.61309589  0.04480459  0.32360483    -0.89500
H1422       H  0.57644006  0.03590444  0.38164995     0.18200
H1423       H  0.50251018  0.09223314  0.28589687     0.18200
N1424       N  0.46451531  0.08116655  0.34488141    -0.88600
H1425       H  0.62887252  0.06736943  0.31876120     0.35500
H1426       H  0.61446444  0.02782745  0.30142345     0.40600
H1427       H  0.46235133  0.09851923  0.36669542     0.40300
H1428       H  0.45054660  0.05769554  0.35081171     0.35100
C1429       C  0.48599032  0.96962154  0.34033198    -0.26600
C1430       C  0.48641695  0.94423273  0.36772777    -0.14700
C1431       C  0.46897041  0.91130800  0.36205528     0.36000
C1432       C  0.45156020  0.90459877  0.32902612    -0.26000
C1433       C  0.44864747  0.93123878  0.30234546    -0.15300
C1434       C  0.46603278  0.96437391  0.30879072     0.37100
N1435       N  0.46143849  0.99396297  0.28490872    -0.89500
H1436       H  0.49834270  0.99532030  0.34473937     0.18200
H1437       H  0.43946260  0.87864481  0.32469960     0.18200
N1438       N  0.46819145  0.88525654  0.39017866    -0.88600
H1439       H  0.48720213  0.00240412  0.27693017     0.35500
H1440       H  0.44911219  0.01496663  0.29884827     0.40600
H1441       H  0.49496784  0.87702249  0.39506995     0.40300
H1442       H  0.45385884  0.86256469  0.38201982     0.35100
C1443       C  0.67737100  0.08568405  0.50943566    -0.26600
C1444       C  0.67913055  0.08722740  0.54685210    -0.14700
C1445       C  0.64636849  0.08717879  0.56625735     0.36000
C1446       C  0.61299368  0.08281182  0.54831532    -0.26000
C1447       C  0.61152521  0.07720530  0.51123951    -0.15300
C1448       C  0.64411056  0.08099636  0.49148089     0.37100
N1449       N  0.64436759  0.08014351  0.45321613    -0.89500
H1450       H  0.70217349  0.08726540  0.49406224     0.18200
H1451       H  0.58852361  0.08101408  0.56399359     0.18200
N1452       N  0.64696852  0.08931353  0.60443502    -0.88600
H1453       H  0.63703998  0.05480265  0.44410210     0.35500
H1454       H  0.62540468  0.09886145  0.44378024     0.40600
H1455       H  0.63113667  0.11132430  0.61206399     0.40300
H1456       H  0.63479518  0.06627398  0.61451559     0.35100
C1457       C  0.65406212  0.97885074  0.48599088    -0.26600
C1458       C  0.62800609  0.95281948  0.49410048    -0.14700
C1459       C  0.63717270  0.91647130  0.48811111     0.36000
C1460       C  0.67071709  0.90758017  0.47210227    -0.26000
C1461       C  0.69528619  0.93402610  0.46061603    -0.15300
C1462       C  0.68669141  0.97009606  0.46838009     0.37100
N1463       N  0.70930736  0.99834658  0.45578686    -0.89500
H1464       H  0.64760823  0.00673921  0.49020711     0.18200
H1465       H  0.67690012  0.87962339  0.46728035     0.18200
N1466       N  0.61276030  0.88800292  0.49696396    -0.88600
H1467       H  0.71626570  0.01429338  0.47767805     0.35500
H1468       H  0.69394298  0.01409065  0.43820303     0.40600
H1469       H  0.58944829  0.89787847  0.50945375     0.40300
H1470       H  0.62590122  0.87180630  0.51581403     0.35100
loop_ 
_geom_bond_atom_site_label_1 
_geom_bond_atom_site_label_2 
_geom_bond_distance 
_geom_bond_site_symmetry_2 
_ccdc_geom_bond_type 
O1            C9   1.269       .  A
O1          Co21   1.971   1_565  S
O2           C10   1.259       .  A
O2          Co22   2.003       .  S
O3           C11   1.280       .  A
O3          Co23   2.027   1_565  S
O4           C12   1.251       .  A
O4          Co24   1.960   1_565  S
O5           C11   1.278       .  A
O5          Co22   1.961       .  S
O6           C12   1.268       .  A
O6          Co21   2.027   1_565  S
O7           C10   1.265       .  A
O7          Co24   2.014   1_565  S
O8            C9   1.289       .  A
O8          Co23   2.069   1_565  S
C9         C1458   1.494       .  S
C10        C1402   1.504       .  S
C11        C1374   1.495       .  S
C12        C1430   1.481       .  S
O13          C26   1.246       .  A
O13         Co21   1.941       .  S
O14          C27   1.286       .  A
O14         Co22   2.047   1_545  S
O15          C28   1.256       .  A
O15         Co23   1.997       .  S
O16          C29   1.268       .  A
O16         Co24   1.978       .  S
O17          C29   1.283       .  A
O17         Co22   2.052   1_545  S
O18          C28   1.254       .  A
O18         Co21   1.996       .  S
O19          C26   1.272       .  A
O19         Co24   2.054       .  S
O20          C27   1.279       .  A
O20         Co23   1.962       .  S
Co21         O25   2.079       .  S
Co22         O25   2.065   1_565  S
Co23         O25   2.056       .  S
Co24         O25   2.095       .  S
C26        C1416   1.490       .  S
C27        C1363   1.506       .  S
C28        C1447   1.491       .  S
C29        C1391   1.496       .  S
O30          C38   1.267       .  A
O30         Co50   1.959   1_655  S
O31          C39   1.256       .  A
O31         Co51   1.959       .  S
O32          C40   1.263       .  A
O32         Co52   1.976   1_655  S
O33          C41   1.286       .  A
O33         Co53   2.073   1_655  S
O34          C40   1.272       .  A
O34         Co51   1.998       .  S
O35          C41   1.272       .  A
O35         Co50   1.939   1_655  S
O36          C39   1.270       .  A
O36         Co53   2.053   1_655  S
O37          C38   1.284       .  A
O37         Co52   2.070   1_655  S
C38        C1332   1.505       .  S
C39        C1321   1.501       .  S
C40        C1262   1.471       .  S
C41        C1290   1.487       .  S
O42          C55   1.284       .  A
O42         Co50   2.052       .  S
O43          C56   1.267       .  A
O43         Co51   1.978   1_455  S
O44          C57   1.257       .  A
O44         Co52   1.959       .  S
O45          C58   1.270       .  A
O45         Co53   1.969       .  S
O46          C58   1.286       .  A
O46         Co51   2.057   1_455  S
O47          C57   1.269       .  A
O47         Co50   2.038       .  S
O48          C55   1.276       .  A
O48         Co53   1.964       .  S
O49          C56   1.276       .  A
O49         Co52   2.007       .  S
Co50         O54   2.030       .  S
Co51         O54   2.023   1_655  S
Co52         O54   2.049       .  S
Co53         O54   2.067       .  S
C55        C1276   1.508       .  S
C56        C1251   1.497       .  S
C57        C1349   1.502       .  S
C58        C1304   1.494       .  S
O59          C67   1.262       .  A
O59         Co79   1.979       .  S
O60          C68   1.266       .  A
O60         Co80   1.974       .  S
O61          C69   1.283       .  A
O61         Co81   2.048   1_556  S
O62          C70   1.266       .  A
O62         Co82   1.978   1_556  S
O63          C69   1.279       .  A
O63         Co80   1.960       .  S
O64          C70   1.279       .  A
O64         Co79   2.012       .  S
O65          C68   1.282       .  A
O65         Co82   2.051   1_556  S
O66          C67   1.265       .  A
O66         Co81   2.020   1_556  S
C67        C1234   1.499       .  S
C68        C1181   1.492       .  S
C69        C1206   1.499       .  S
C70        C1150   1.479       .  S
O71          C84   1.262       .  A
O71         Co79   1.976   1_554  S
O72          C85   1.287       .  A
O72         Co80   2.069   1_554  S
O73          C86   1.270       .  A
O73         Co81   1.962       .  S
O74          C87   1.260       .  A
O74         Co82   1.968       .  S
O75          C87   1.275       .  A
O75         Co80   2.055   1_554  S
O76          C86   1.290       .  A
O76         Co79   2.076   1_554  S
O77          C84   1.273       .  A
O77         Co82   2.002       .  S
O78          C85   1.269       .  A
O78         Co81   1.949       .  S
Co79         O83   2.052       .  S
Co80         O83   2.069       .  S
Co81         O83   2.026   1_554  S
Co82         O83   2.034   1_554  S
C84        C1139   1.481       .  S
C85        C1195   1.504       .  S
C86        C1220   1.507       .  S
C87        C1167   1.509       .  S
C88        C1108   1.489       .  S
C88          C89   1.402       .  A
C88          C93   1.412       .  A
C89          C90   1.393       .  A
C89          H94   1.084       .  S
C90        C1125   1.478       .  S
C90          C91   1.398       .  A
C91          C92   1.412       .  A
C91          H95   1.084       .  S
C92        C1377   1.499       .  S
C92          C93   1.412       .  A
C93          H96   1.078       .  S
C97        C1094   1.484       .  S
C97          C98   1.405       .  A
C97         C102   1.402       .  A
C98          C99   1.406       .  A
C98         H103   1.084       .  S
C99        C1080   1.489       .  S
C99         C100   1.407       .  A
C100        C101   1.406       .  A
C100        H104   1.083       .  S
C101       C1122   1.485       .  S
C101        C102   1.404       .  A
C102        H105   1.084       .  S
C106       C1066   1.512       .  S
C106        C107   1.426       .  A
C106        C111   1.410       .  A
C107        C108   1.424       .  A
C107        H112   1.079       .  S
C108       C1335   1.514       .  S
C108        C109   1.410       .  A
C109        C110   1.392       .  A
C109        H113   1.083       .  S
C110       C1097   1.480       .  S
C110        C111   1.393       .  A
C111        H114   1.083       .  S
C115       C1052   1.503       .  S
C115        C116   1.412       .  A
C115        C120   1.404       .  A
C116        C117   1.419       .  A
C116        H121   1.079       .  S
C117       C1178   1.513       .  S
C117        C118   1.411       .  A
C118        C119   1.403       .  A
C118        H122   1.082       .  S
C119       C1083   1.481       .  S
C119        C120   1.400       .  A
C120        H123   1.083       .  S
C124       C1024   1.489       .  S
C124        C125   1.400       .  A
C124        C129   1.407       .  A
C125        C126   1.398       .  A
C125        H130   1.084       .  S
C126       C1013   1.481       .  S
C126        C127   1.403       .  A
C127        C128   1.416       .  A
C127        H131   1.081       .  S
C128       C1041   1.512       .  S
C128        C129   1.418       .  A
C129        H132   1.082       .  S
C133       C1237   1.527       .  S
C133        C134   1.418       .  A
C133        C138   1.422       .  A
C134        C135   1.408       .  A
C134        H139   1.069       .  S
C135       C1038   1.508       .  S
C135        C136   1.400       .  A
C136        C137   1.404       .  A
C136        H140   1.083       .  S
C137        C999   1.493       .  S
C137        C138   1.410       .  A
C138        H141   1.080       .  S
C142        C982   1.515       .  S
C142        C143   1.406       .  A
C142        C147   1.420       .  A
C143        C144   1.396       .  A
C143        H148   1.082       .  S
C144       C1027   1.489       .  S
C144        C145   1.404       .  A
C145        C146   1.418       .  A
C145        H149   1.082       .  S
C146       C1360   1.518       .  S
C146        C147   1.421       .  A
C147        H150   1.076       .  S
C151        C968   1.506       .  S
C151        C152   1.408       .  A
C151        C156   1.414       .  A
C152        C153   1.407       .  A
C152        H157   1.081       .  S
C153       C1010   1.492       .  S
C153        C154   1.405       .  A
C154        C155   1.407       .  A
C154        H158   1.083       .  S
C155       C1307   1.506       .  S
C155        C156   1.414       .  A
C156        H159   1.080       .  S
O160        C168   1.266       .  A
O160       Co180   2.002       .  S
O161        C169   1.282   1_565  A
O161       Co181   2.027       .  S
O162        C170   1.265       .  A
O162       Co182   1.971       .  S
O163        C171   1.272   1_554  A
O163       Co183   1.966       .  S
O164        C170   1.252   1_554  A
O164       Co181   1.965       .  S
O165        C171   1.284       .  A
O165       Co180   2.062       .  S
O166        C169   1.279       .  A
O166       Co183   1.961       .  S
O167        C168   1.268   1_565  A
O167       Co182   1.998       .  S
C168        C985   1.484       .  S
C169        C926   1.501   1_545  S
C170        C898   1.468       .  S
C171        C940   1.508       .  S
O172        C185   1.261   1_556  A
O172       Co180   1.969       .  S
O173        C186   1.256   1_554  A
O173       Co181   1.944       .  S
O174        C187   1.266       .  A
O174       Co182   1.974       .  S
O175        C188   1.266   1_545  A
O175       Co183   2.015       .  S
O176        C188   1.238       .  A
O176       Co181   1.969       .  S
O177        C187   1.271   1_545  A
O177       Co180   1.989       .  S
O178        C185   1.273       .  A
O178       Co183   2.046       .  S
O179        C186   1.280       .  A
O179       Co182   2.066       .  S
Co180       O184   2.044       .  S
Co181       O184   2.078   1_564  S
Co182       O184   2.081   1_565  S
Co183       O184   2.003   1_554  S
C185        C954   1.507   1_554  S
C186        C884   1.499   1_556  S
C187       C1111   1.466       .  S
C188        C912   1.484   1_565  S
C189        C870   1.495       .  S
C189        C190   1.405       .  A
C189        C194   1.409       .  A
C190        C191   1.404       .  A
C190        H195   1.084       .  S
C191        C856   1.491       .  S
C191        C192   1.410       .  A
C192        C193   1.416       .  A
C192        H196   1.082       .  S
C193        C842   1.510       .  S
C193        C194   1.413       .  A
C194        H197   1.083       .  S
C198        C901   1.489       .  S
C198        C199   1.411       .  A
C198        C203   1.406       .  A
C199        C200   1.414       .  A
C199        H204   1.083       .  S
C200       C1209   1.506       .  S
C200        C201   1.414       .  A
C201        C202   1.402       .  A
C201        H205   1.082       .  S
C202        C873   1.490       .  S
C202        C203   1.398       .  A
C203        H206   1.083       .  S
C207        C828   1.492       .  S
C207        C208   1.407       .  A
C207        C212   1.407       .  A
C208        C209   1.409       .  A
C208        H213   1.084       .  S
C209        C859   1.495       .  S
C209        C210   1.408       .  A
C210        C211   1.410       .  A
C210        H214   1.083       .  S
C211       C1405   1.501       .  S
C211        C212   1.412       .  A
C212        H215   1.081       .  S
C216        C817   1.502       .  S
C216        C217   1.411       .  A
C216        C221   1.413       .  A
C217        C218   1.413       .  A
C217        H222   1.076       .  S
C218       C1279   1.506       .  S
C218        C219   1.410       .  A
C219        C220   1.404       .  A
C219        H223   1.082       .  S
C220        C845   1.492       .  S
C220        C221   1.405       .  A
C221        H224   1.082       .  S
C225        C789   1.492       .  S
C225        C226   1.401       .  A
C225        C230   1.411       .  A
C226        C227   1.399       .  A
C226        H231   1.084       .  S
C227        C775   1.486       .  S
C227        C228   1.406       .  A
C228        C229   1.416       .  A
C228        H232   1.081       .  S
C229        C803   1.518       .  S
C229        C230   1.420       .  A
C230        H233   1.082       .  S
C234        C758   1.512       .  S
C234        C235   1.413       .  A
C234        C239   1.414       .  A
C235        C236   1.410       .  A
C235        H240   1.082       .  S
C236        C800   1.517       .  S
C236        C237   1.412       .  A
C237        C238   1.414       .  A
C237        H241   1.081       .  S
C238       C1318   1.513       .  S
C238        C239   1.415       .  A
C239        H242   1.078       .  S
C243        C747   1.527       .  S
C243        C244   1.422       .  A
C243        C248   1.418       .  A
C244        C245   1.418       .  A
C244        H249   1.077       .  S
C245       C1164   1.507       .  S
C245        C246   1.412       .  A
C246        C247   1.401       .  A
C246        H250   1.083       .  S
C247        C786   1.500       .  S
C247        C248   1.402       .  A
C248        H251   1.079       .  S
C252        C915   1.497       .  S
C252        C253   1.413       .  A
C252        C257   1.411       .  A
C253        C254   1.406       .  A
C253        H258   1.079       .  S
C254        C772   1.493       .  S
C254        C255   1.401       .  A
C255        C256   1.402       .  A
C255        H259   1.084       .  S
C256       C1419   1.481       .  S
C256        C257   1.404       .  A
C257        H260   1.083       .  S
O261        C269   1.266       .  A
O261       Co281   1.966       .  S
O262        C270   1.266       .  A
O262       Co282   1.990       .  S
O263        C271   1.276       .  A
O263       Co283   1.974       .  S
O264        C272   1.287   1_455  A
O264       Co284   2.028       .  S
O265        C271   1.294   1_455  A
O265       Co282   2.067       .  S
O266        C272   1.285       .  A
O266       Co281   1.963       .  S
O267        C270   1.248   1_556  A
O267       Co284   1.957       .  S
O268        C269   1.278   1_554  A
O268       Co283   2.042       .  S
C269       C1055   1.501       .  S
C270        C730   1.485       .  S
C271        C702   1.494       .  S
C272        C814   1.495   1_655  S
O273        C286   1.266   1_655  A
O273       Co281   2.002       .  S
O274        C287   1.253       .  A
O274       Co282   1.984       .  S
O275        C288   1.251   1_554  A
O275       Co283   1.945       .  S
O276        C289   1.286       .  A
O276       Co284   2.021   1_554  S
O277        C289   1.286       .  A
O277       Co282   1.948       .  S
O278        C288   1.277       .  A
O278       Co281   2.053       .  S
O279        C286   1.245       .  A
O279       Co284   1.994       .  S
O280        C287   1.260   1_655  A
O280       Co283   2.019       .  S
Co281       O285   1.985   1_556  S
Co282       O285   1.930   1_455  S
Co283       O285   2.016       .  S
Co284       O285   2.108   1_456  S
C286        C688   1.494   1_455  S
C287        C716   1.491       .  S
C288        C744   1.491   1_556  S
C289        C996   1.486       .  S
C290        C663   1.498       .  S
C290        C291   1.396       .  A
C290        C295   1.419       .  A
C291        C292   1.395       .  A
C291        H296   1.082       .  S
C292        C674   1.487       .  S
C292        C293   1.403       .  A
C293        C294   1.413       .  A
C293        H297   1.082       .  S
C294       C1388   1.517       .  S
C294        C295   1.423       .  A
C295        H298   1.079       .  S
C299        C677   1.499       .  S
C299        C300   1.410       .  A
C299        C304   1.411       .  A
C300        C301   1.397       .  A
C300        H305   1.082       .  S
C301        C649   1.472       .  S
C301        C302   1.394       .  A
C302        C303   1.396       .  A
C302        H306   1.084       .  S
C303        C635   1.472       .  S
C303        C304   1.404       .  A
C304        H307   1.081       .  S
C308        C719   1.494       .  S
C308        C309   1.403       .  A
C308        C313   1.414       .  A
C309        C310   1.397       .  A
C309        H314   1.084       .  S
C310        C646   1.467       .  S
C310        C311   1.394       .  A
C311        C312   1.400       .  A
C311        H315   1.084       .  S
C312       C1248   1.490       .  S
C312        C313   1.417       .  A
C313        H316   1.083       .  S
C317        C943   1.507       .  S
C317        C318   1.424       .  A
C317        C322   1.407       .  A
C318        C319   1.421       .  A
C318        H323   1.082       .  S
C319       C1136   1.502       .  S
C319        C320   1.404       .  A
C320        C321   1.395       .  A
C320        H324   1.084       .  S
C321        C632   1.474       .  S
C321        C322   1.393       .  A
C322        H325   1.082       .  S
C326        C621   1.489       .  S
C326        C327   1.405       .  A
C326        C331   1.410       .  A
C327        C328   1.404       .  A
C327        H332   1.084       .  S
C328        C590   1.489       .  S
C328        C329   1.408       .  A
C329        C330   1.408       .  A
C329        H333   1.084       .  S
C330        C604   1.497       .  S
C330        C331   1.412       .  A
C331        H334   1.083       .  S
C335       C1293   1.513       .  S
C335        C336   1.416       .  A
C335        C340   1.415       .  A
C336        C337   1.407       .  A
C336        H341   1.081       .  S
C337        C691   1.500       .  S
C337        C338   1.408       .  A
C338        C339   1.403       .  A
C338        H342   1.082       .  S
C339        C618   1.494       .  S
C339        C340   1.407       .  A
C340        H343   1.082       .  S
C344       C1153   1.502       .  S
C344        C345   1.419       .  A
C344        C349   1.401       .  A
C345        C346   1.428       .  A
C345        H350   1.079       .  S
C346        C957   1.539       .  S
C346        C347   1.425       .  A
C347        C348   1.407       .  A
C347        H351   1.077       .  S
C348        C607   1.493       .  S
C348        C349   1.394       .  A
C349        H352   1.084       .  S
C353       C1444   1.493       .  S
C353        C354   1.401       .  A
C353        C358   1.410       .  A
C354        C355   1.402       .  A
C354        H359   1.084       .  S
C355        C593   1.488       .  S
C355        C356   1.407       .  A
C356        C357   1.414       .  A
C356        H360   1.083       .  S
C357        C576   1.504       .  S
C357        C358   1.413       .  A
C358        H361   1.080       .  S
C362        C565   1.484       .  S
C362        C363   1.403       .  A
C362        C367   1.407       .  A
C363        C364   1.404       .  A
C363        H368   1.084       .  S
C364        C537   1.479       .  S
C364        C365   1.401       .  A
C365        C366   1.404       .  A
C365        H369   1.084       .  S
C366        C548   1.488       .  S
C366        C367   1.409       .  A
C367        H370   1.084       .  S
C371       C1461   1.513       .  S
C371        C372   1.414       .  A
C371        C376   1.421       .  A
C372        C373   1.406       .  A
C372        H377   1.083       .  S
C373        C562   1.490       .  S
C373        C374   1.400       .  A
C374        C375   1.401       .  A
C374        H378   1.084       .  S
C375        C520   1.496       .  S
C375        C376   1.416       .  A
C376        H379   1.083       .  S
C380        C705   1.515       .  S
C380        C381   1.413       .  A
C380        C385   1.419       .  A
C381        C382   1.401       .  A
C381        H386   1.081       .  S
C382        C551   1.478       .  S
C382        C383   1.396       .  A
C383        C384   1.402       .  A
C383        H387   1.084       .  S
C384       C1265   1.494       .  S
C384        C385   1.414       .  A
C385        H388   1.082       .  S
C389        C887   1.513       .  S
C389        C390   1.424       .  A
C389        C394   1.410       .  A
C390        C391   1.419       .  A
C390        H395   1.082       .  S
C391       C1192   1.508       .  S
C391        C392   1.408       .  A
C392        C393   1.399       .  A
C392        H396   1.083       .  S
C393        C534   1.488       .  S
C393        C394   1.400       .  A
C394        H397   1.081       .  S
C398        C492   1.497       .  S
C398        C399   1.408       .  A
C398        C403   1.410       .  A
C399        C400   1.410       .  A
C399        H404   1.079       .  S
C400        C478   1.506       .  S
C400        C401   1.409       .  A
C401        C402   1.408       .  A
C401        H405   1.083       .  S
C402        C506   1.496       .  S
C402        C403   1.410       .  A
C403        H406   1.083       .  S
C407       C1433   1.509       .  S
C407        C408   1.413       .  A
C407        C412   1.411       .  A
C408        C409   1.406       .  A
C408        H413   1.081       .  S
C409        C929   1.498       .  S
C409        C410   1.412       .  A
C410        C411   1.407       .  A
C410        H414   1.082       .  S
C411        C509   1.490       .  S
C411        C412   1.403       .  A
C412        H415   1.082       .  S
C416       C1346   1.512       .  S
C416        C417   1.418       .  A
C416        C421   1.416       .  A
C417        C418   1.406       .  A
C417        H422   1.082       .  S
C418        C495   1.493       .  S
C418        C419   1.401       .  A
C419        C420   1.409       .  A
C419        H423   1.084       .  S
C420        C464   1.493       .  S
C420        C421   1.406       .  A
C421        H424   1.077       .  S
C425       C1223   1.515       .  S
C425        C426   1.416       .  A
C425        C430   1.419       .  A
C426        C427   1.410       .  A
C426        H431   1.081       .  S
C427        C481   1.511       .  S
C427        C428   1.405       .  A
C428        C429   1.403       .  A
C428        H432   1.082       .  S
C429        C733   1.497       .  S
C429        C430   1.412       .  A
C430        H433   1.082       .  S
O434        C442   1.255       .  A
O434       Co454   1.950       .  S
O435        C443   1.246       .  A
O435       Co455   1.958       .  S
O436        C444   1.262       .  A
O436       Co456   1.969       .  S
O437        C445   1.270   1_545  A
O437       Co457   2.001       .  S
O438        C444   1.284   1_545  A
O438       Co455   2.060       .  S
O439        C445   1.263       .  A
O439       Co454   1.980       .  S
O440        C443   1.260   1_655  A
O440       Co457   2.026       .  S
O441        C442   1.266   1_455  A
O441       Co456   2.024       .  S
C442       C1069   1.500       .  S
C443        C971   1.504       .  S
C444        C831   1.485       .  S
C445        C579   1.467   1_565  S
O446        C459   1.251       .  A
O446       Co454   1.956       .  S
O447        C460   1.257   1_545  A
O447       Co455   1.977       .  S
O448        C461   1.259       .  A
O448       Co456   1.983       .  S
O449        C462   1.281   1_655  A
O449       Co457   2.019       .  S
O450        C462   1.284       .  A
O450       Co455   1.985       .  S
O451        C461   1.256   1_655  A
O451       Co454   2.017       .  S
O452        C459   1.267   1_545  A
O452       Co457   2.030       .  S
O453        C460   1.261       .  A
O453       Co456   2.000       .  S
Co454       O458   2.031   1_655  S
Co455       O458   2.008   1_545  S
Co456       O458   2.104       .  S
Co457       O458   2.191   1_645  S
C459        C523   1.491       .  S
C460        C660   1.495   1_565  S
C461        C467   1.496       .  S
C462        C761   1.511   1_455  S
C463        C464   1.393       .  A
C463        C468   1.386       .  A
C463        H470   1.085       .  S
C464        C465   1.417       .  A
C465        C466   1.425   1_455  A
C465        N472   1.437   1_455  S
C466        C467   1.414   1_655  A
C466        H471   1.084       .  S
C467        C468   1.420       .  A
C468        N469   1.431       .  S
N469        H473   1.043       .  S
N469        H474   1.043       .  S
N472        H475   1.047       .  S
N472        H476   1.044       .  S
C477        C478   1.410       .  A
C477        C482   1.413       .  A
C477        H484   1.083       .  S
C478        C479   1.419       .  A
C479        C480   1.400       .  A
C479        N486   1.433       .  S
C480        C481   1.409       .  A
C480        H485   1.080       .  S
C481        C482   1.418       .  A
C482        N483   1.438       .  S
N483        H487   1.045       .  S
N483        H488   1.046       .  S
N486        H489   1.045       .  S
N486        H490   1.042       .  S
C491        C492   1.406       .  A
C491        C496   1.408       .  A
C491        H498   1.084       .  S
C492        C493   1.413       .  A
C493        C494   1.409       .  A
C493        N500   1.432       .  S
C494        C495   1.404       .  A
C494        H499   1.084       .  S
C495        C496   1.415       .  A
C496        N497   1.432       .  S
N497        H501   1.045       .  S
N497        H502   1.046       .  S
N500        H503   1.045       .  S
N500        H504   1.046       .  S
C505        C506   1.408       .  A
C505        C510   1.409       .  A
C505        H512   1.083       .  S
C506        C507   1.413       .  A
C507        C508   1.406       .  A
C507        N514   1.433       .  S
C508        C509   1.403       .  A
C508        H513   1.084       .  S
C509        C510   1.413       .  A
C510        N511   1.431       .  S
N511        H515   1.045       .  S
N511        H516   1.046       .  S
N514        H517   1.046       .  S
N514        H518   1.046       .  S
C519        C520   1.405       .  A
C519        C524   1.414       .  A
C519        H526   1.083       .  S
C520        C521   1.414       .  A
C521        C522   1.405       .  A
C521        N528   1.438       .  S
C522        C523   1.406       .  A
C522        H527   1.083       .  S
C523        C524   1.414       .  A
C524        N525   1.436   1_565  S
N525        H529   1.045       .  S
N525        H530   1.045       .  S
N528        H531   1.046       .  S
N528        H532   1.046       .  S
C533        C534   1.406       .  A
C533        C538   1.401       .  A
C533        H540   1.084       .  S
C534        C535   1.412       .  A
C535        C536   1.404       .  A
C535        N542   1.432       .  S
C536        C537   1.402       .  A
C536        H541   1.084       .  S
C537        C538   1.412       .  A
C538        N539   1.433       .  S
N539        H543   1.045       .  S
N539        H544   1.045       .  S
N542        H545   1.045       .  S
N542        H546   1.046       .  S
C547        C548   1.404       .  A
C547        C552   1.399       .  A
C547        H554   1.084       .  S
C548        C549   1.417       .  A
C549        C550   1.409       .  A
C549        N556   1.438       .  S
C550        C551   1.401       .  A
C550        H555   1.084       .  S
C551        C552   1.411       .  A
C552        N553   1.433       .  S
N553        H557   1.045       .  S
N553        H558   1.046       .  S
N556        H559   1.046       .  S
N556        H560   1.045       .  S
C561        C562   1.405       .  A
C561        C566   1.404       .  A
C561        H568   1.084       .  S
C562        C563   1.412       .  A
C563        C564   1.405       .  A
C563        N570   1.432       .  S
C564        C565   1.402       .  A
C564        H569   1.084       .  S
C565        C566   1.414       .  A
C566        N567   1.432       .  S
N567        H571   1.045       .  S
N567        H572   1.045       .  S
N570        H573   1.046       .  S
N570        H574   1.046       .  S
C575        C576   1.415       .  A
C575        C580   1.409       .  A
C575        H582   1.083       .  S
C576        C577   1.424       .  A
C577        C578   1.396       .  A
C577        N584   1.432       .  S
C578        C579   1.396       .  A
C578        H583   1.080       .  S
C579        C580   1.399       .  A
C580        N581   1.432   1_545  S
N581        H585   1.045       .  S
N581        H586   1.045   1_565  S
N584        H587   1.045       .  S
N584        H588   1.040       .  S
C589        C590   1.405       .  A
C589        C594   1.407       .  A
C589        H596   1.084       .  S
C590        C591   1.416       .  A
C591        C592   1.403       .  A
C591        N598   1.433       .  S
C592        C593   1.405       .  A
C592        H597   1.084       .  S
C593        C594   1.409       .  A
C594        N595   1.432       .  S
N595        H599   1.046       .  S
N595        H600   1.046       .  S
N598        H601   1.044       .  S
N598        H602   1.046       .  S
C603        C604   1.407       .  A
C603        C608   1.405       .  A
C603        H610   1.084       .  S
C604        C605   1.414       .  A
C605        C606   1.413       .  A
C605        N612   1.437       .  S
C606        C607   1.405       .  A
C606        H611   1.084       .  S
C607        C608   1.414       .  A
C608        N609   1.432       .  S
N609        H613   1.044       .  S
N609        H614   1.046       .  S
N612        H615   1.046       .  S
N612        H616   1.045       .  S
C617        C618   1.407       .  A
C617        C622   1.405       .  A
C617        H624   1.084       .  S
C618        C619   1.413       .  A
C619        C620   1.410       .  A
C619        N626   1.437       .  S
C620        C621   1.404       .  A
C620        H625   1.084       .  S
C621        C622   1.414       .  A
C622        N623   1.432       .  S
N623        H627   1.045       .  S
N623        H628   1.046       .  S
N626        H629   1.045       .  S
N626        H630   1.046       .  S
C631        C632   1.401       .  A
C631        C636   1.394       .  A
C631        H638   1.084       .  S
C632        C633   1.408       .  A
C633        C634   1.404       .  A
C633        N640   1.432       .  S
C634        C635   1.404       .  A
C634        H639   1.084       .  S
C635        C636   1.412       .  A
C636        N637   1.433       .  S
N637        H641   1.044       .  S
N637        H642   1.046       .  S
N640        H643   1.046       .  S
N640        H644   1.045       .  S
C645        C646   1.399       .  A
C645        C650   1.392       .  A
C645        H652   1.085       .  S
C646        C647   1.416       .  A
C647        C648   1.401       .  A
C647        N654   1.439       .  S
C648        C649   1.402       .  A
C648        H653   1.084       .  S
C649        C650   1.413       .  A
C650        N651   1.433       .  S
N651        H655   1.044       .  S
N651        H656   1.046       .  S
N654        H657   1.043       .  S
N654        H658   1.046       .  S
C659        C660   1.412   1_565  A
C659        C664   1.407   1_565  A
C659        H666   1.083       .  S
C660        C661   1.412       .  A
C661        C662   1.409       .  A
C661        N668   1.437       .  S
C662        C663   1.411       .  A
C662        H667   1.082       .  S
C663        C664   1.405       .  A
C664        N665   1.431   1_545  S
N665        H669   1.045       .  S
N665        H670   1.045       .  S
N668        H671   1.045       .  S
N668        H672   1.046       .  S
C673        C674   1.405       .  A
C673        C678   1.409       .  A
C673        H680   1.083       .  S
C674        C675   1.416       .  A
C675        C676   1.390       .  A
C675        N682   1.435       .  S
C676        C677   1.407       .  A
C676        H681   1.082       .  S
C677        C678   1.419       .  A
C678        N679   1.437       .  S
N679        H683   1.046       .  S
N679        H684   1.045       .  S
N682        H685   1.045       .  S
N682        H686   1.042       .  S
C687        C688   1.400       .  A
C687        C692   1.391       .  A
C687        H694   1.083       .  S
C688        C689   1.424   1_655  A
C689        C690   1.420       .  A
C689        N696   1.439       .  S
C690        C691   1.413   1_455  A
C690        H695   1.084       .  S
C691        C692   1.408       .  A
C692        N693   1.431       .  S
N693        H697   1.046       .  S
N693        H698   1.046       .  S
N696        H699   1.046       .  S
N696        H700   1.045       .  S
C701        C702   1.403       .  A
C701        C706   1.413       .  A
C701        H708   1.084       .  S
C702        C703   1.410       .  A
C703        C704   1.411       .  A
C703        N710   1.432   1_655  S
C704        C705   1.409       .  A
C704        H709   1.081       .  S
C705        C706   1.422       .  A
C706        N707   1.437       .  S
N707        H711   1.046       .  S
N707        H712   1.045       .  S
N710        H713   1.046       .  S
N710        H714   1.045       .  S
C715        C716   1.404       .  A
C715        C720   1.399       .  A
C715        H722   1.081       .  S
C716        C717   1.414   1_455  A
C717        C718   1.413   1_655  A
C717        N724   1.432       .  S
C718        C719   1.408       .  A
C718        H723   1.084       .  S
C719        C720   1.411       .  A
C720        N721   1.433       .  S
N721        H725   1.046       .  S
N721        H726   1.046       .  S
N724        H727   1.046       .  S
N724        H728   1.045       .  S
C729        C730   1.398       .  A
C729        C734   1.388       .  A
C729        H736   1.084       .  S
C730        C731   1.425       .  A
C731        C732   1.412       .  A
C731        N738   1.434   1_554  S
C732        C733   1.409       .  A
C732        H737   1.083   1_554  S
C733        C734   1.419       .  A
C734        N735   1.432       .  S
N735        H739   1.042       .  S
N735        H740   1.044       .  S
N738        H741   1.046       .  S
N738        H742   1.045       .  S
C743        C744   1.403   1_556  A
C743        C748   1.422   1_556  A
C743        H750   1.084       .  S
C744        C745   1.412       .  A
C745        C746   1.393       .  A
C745        N752   1.436       .  S
C746        C747   1.411       .  A
C746        H751   1.079       .  S
C747        C748   1.429       .  A
C748        N749   1.434   1_554  S
N749        H753   1.045       .  S
N749        H754   1.045       .  S
N752        H755   1.045       .  S
N752        H756   1.046       .  S
C757        C758   1.402       .  A
C757        C762   1.401       .  A
C757        H764   1.084       .  S
C758        C759   1.418       .  A
C759        C760   1.421   1_655  A
C759        N766   1.430   1_655  S
C760        C761   1.409   1_455  A
C760        H765   1.083       .  S
C761        C762   1.422       .  A
C762        N763   1.432       .  S
N763        H767   1.046       .  S
N763        H768   1.046       .  S
N766        H769   1.045       .  S
N766        H770   1.044       .  S
C771        C772   1.407       .  A
C771        C776   1.401       .  A
C771        H778   1.084       .  S
C772        C773   1.412       .  A
C773        C774   1.408       .  A
C773        N780   1.432       .  S
C774        C775   1.405       .  A
C774        H779   1.084       .  S
C775        C776   1.413       .  A
C776        N777   1.433       .  S
N777        H781   1.044       .  S
N777        H782   1.045       .  S
N780        H783   1.046       .  S
N780        H784   1.045       .  S
C785        C786   1.407       .  A
C785        C790   1.403       .  A
C785        H792   1.084       .  S
C786        C787   1.414       .  A
C787        C788   1.411       .  A
C787        N794   1.432       .  S
C788        C789   1.405       .  A
C788        H793   1.084       .  S
C789        C790   1.415       .  A
C790        N791   1.433       .  S
N791        H795   1.043       .  S
N791        H796   1.046       .  S
N794        H797   1.046       .  S
N794        H798   1.046       .  S
C799        C800   1.410       .  A
C799        C804   1.414       .  A
C799        H806   1.082       .  S
C800        C801   1.416       .  A
C801        C802   1.410       .  A
C801        N808   1.431       .  S
C802        C803   1.410       .  A
C802        H807   1.082       .  S
C803        C804   1.422       .  A
C804        N805   1.438       .  S
N805        H809   1.046       .  S
N805        H810   1.045       .  S
N808        H811   1.046       .  S
N808        H812   1.045       .  S
C813        C814   1.410       .  A
C813        C818   1.390       .  A
C813        H820   1.083       .  S
C814        C815   1.411   1_455  A
C815        C816   1.423   1_655  A
C815        N822   1.436       .  S
C816        C817   1.417       .  A
C816        H821   1.083       .  S
C817        C818   1.413       .  A
C818        N819   1.434       .  S
N819        H823   1.042       .  S
N819        H824   1.045       .  S
N822        H825   1.046       .  S
N822        H826   1.045       .  S
C827        C828   1.409       .  A
C827        C832   1.412       .  A
C827        H834   1.083       .  S
C828        C829   1.412       .  A
C829        C830   1.399       .  A
C829        N836   1.433       .  S
C830        C831   1.404       .  A
C830        H835   1.080       .  S
C831        C832   1.413       .  A
C832        N833   1.431   1_565  S
N833        H837   1.045       .  S
N833        H838   1.046       .  S
N836        H839   1.045       .  S
N836        H840   1.044       .  S
C841        C842   1.412       .  A
C841        C846   1.405       .  A
C841        H848   1.083       .  S
C842        C843   1.421       .  A
C843        C844   1.414       .  A
C843        N850   1.437       .  S
C844        C845   1.403       .  A
C844        H849   1.084       .  S
C845        C846   1.410       .  A
C846        N847   1.432       .  S
N847        H851   1.045       .  S
N847        H852   1.045       .  S
N850        H853   1.045       .  S
N850        H854   1.046       .  S
C855        C856   1.405       .  A
C855        C860   1.407       .  A
C855        H862   1.084       .  S
C856        C857   1.412       .  A
C857        C858   1.412       .  A
C857        N864   1.437       .  S
C858        C859   1.407       .  A
C858        H863   1.084       .  S
C859        C860   1.411       .  A
C860        N861   1.432       .  S
N861        H865   1.045       .  S
N861        H866   1.046       .  S
N864        H867   1.045       .  S
N864        H868   1.046       .  S
C869        C870   1.407       .  A
C869        C874   1.403       .  A
C869        H876   1.084       .  S
C870        C871   1.414       .  A
C871        C872   1.411       .  A
C871        N878   1.437       .  S
C872        C873   1.405       .  A
C872        H877   1.084       .  S
C873        C874   1.414       .  A
C874        N875   1.433       .  S
N875        H879   1.044       .  S
N875        H880   1.046       .  S
N878        H881   1.044       .  S
N878        H882   1.047       .  S
C883        C884   1.407       .  A
C883        C888   1.402       .  A
C883        H890   1.083       .  S
C884        C885   1.412   1_554  A
C885        C886   1.413   1_556  A
C885        N892   1.430       .  S
C886        C887   1.410       .  A
C886        H891   1.082   1_554  S
C887        C888   1.420       .  A
C888        N889   1.434       .  S
N889        H893   1.046       .  S
N889        H894   1.046       .  S
N892        H895   1.045       .  S
N892        H896   1.045       .  S
C897        C898   1.399       .  A
C897        C902   1.388       .  A
C897        H904   1.084       .  S
C898        C899   1.412   1_556  A
C899        C900   1.413   1_554  A
C899        N906   1.439       .  S
C900        C901   1.410       .  A
C900        H905   1.083   1_556  S
C901        C902   1.417       .  A
C902        N903   1.433       .  S
N903        H907   1.042       .  S
N903        H908   1.045       .  S
N906        H909   1.045       .  S
N906        H910   1.046       .  S
C911        C912   1.397       .  A
C911        C916   1.383       .  A
C911        H918   1.084       .  S
C912        C913   1.418   1_545  A
C913        C914   1.415   1_565  A
C913        N920   1.434       .  S
C914        C915   1.415       .  A
C914        H919   1.084   1_545  S
C915        C916   1.418       .  A
C916        N917   1.432       .  S
N917        H921   1.041       .  S
N917        H922   1.046       .  S
N920        H923   1.046       .  S
N920        H924   1.046       .  S
C925        C926   1.414       .  A
C925        C930   1.395       .  A
C925        H932   1.083       .  S
C926        C927   1.415   1_565  A
C927        C928   1.413   1_545  A
C927        N934   1.431       .  S
C928        C929   1.414       .  A
C928        H933   1.084   1_565  S
C929        C930   1.411       .  A
C930        N931   1.433       .  S
N931        H935   1.043       .  S
N931        H936   1.045       .  S
N934        H937   1.046       .  S
N934        H938   1.045       .  S
C939        C940   1.408   1_554  A
C939        C944   1.401       .  A
C939        H946   1.083       .  S
C940        C941   1.430       .  A
C941        C942   1.411       .  A
C941        N948   1.431       .  S
C942        C943   1.406   1_556  A
C942        H947   1.083       .  S
C943        C944   1.417       .  A
C944        N945   1.434       .  S
N945        H949   1.046       .  S
N945        H950   1.046       .  S
N948        H951   1.046       .  S
N948        H952   1.037       .  S
C953        C954   1.404       .  A
C953        C958   1.413       .  A
C953        H960   1.084       .  S
C954        C955   1.416   1_556  A
C955        C956   1.413   1_554  A
C955        N962   1.431       .  S
C956        C957   1.420       .  A
C956        H961   1.079       .  S
C957        C958   1.428       .  A
C958        N959   1.437       .  S
N959        H963   1.046       .  S
N959        H964   1.045       .  S
N962        H965   1.045       .  S
N962        H966   1.037       .  S
C967        C968   1.406       .  A
C967        C972   1.411       .  A
C967        H974   1.084       .  S
C968        C969   1.417       .  A
C969        C970   1.413       .  A
C969        N976   1.438       .  S
C970        C971   1.410       .  A
C970        H975   1.083       .  S
C971        C972   1.419       .  A
C972        N973   1.437   1_455  S
N973        H977   1.046       .  S
N973        H978   1.045       .  S
N976        H979   1.046       .  S
N976        H980   1.045       .  S
C981        C982   1.414       .  A
C981        C986   1.396       .  A
C981        H988   1.081       .  S
C982        C983   1.421       .  A
C983        C984   1.419       .  A
C983        N990   1.436       .  S
C984        C985   1.407       .  A
C984        H989   1.084   1_545  S
C985        C986   1.402       .  A
C986        N987   1.429       .  S
N987        H991   1.038       .  S
N987        H992   1.046       .  S
N990        H993   1.046       .  S
N990        H994   1.045   1_545  S
C995        C996   1.409   1_556  A
C995       C1000   1.391       .  A
C995       H1002   1.082       .  S
C996        C997   1.408       .  A
C997        C998   1.415       .  A
C997       N1004   1.431       .  S
C998        C999   1.411   1_554  A
C998       H1003   1.083       .  S
C999       C1000   1.408       .  A
C1000      N1001   1.434       .  S
N1001      H1005   1.046       .  S
N1001      H1006   1.046       .  S
N1004      H1007   1.045       .  S
N1004      H1008   1.045       .  S
C1009      C1010   1.407       .  A
C1009      C1014   1.399       .  A
C1009      H1016   1.084       .  S
C1010      C1011   1.413       .  A
C1011      C1012   1.407       .  A
C1011      N1018   1.432       .  S
C1012      C1013   1.403       .  A
C1012      H1017   1.084       .  S
C1013      C1014   1.411       .  A
C1014      N1015   1.432       .  S
N1015      H1019   1.045       .  S
N1015      H1020   1.045       .  S
N1018      H1021   1.046       .  S
N1018      H1022   1.046       .  S
C1023      C1024   1.406       .  A
C1023      C1028   1.405       .  A
C1023      H1030   1.084       .  S
C1024      C1025   1.412       .  A
C1025      C1026   1.406       .  A
C1025      N1032   1.438       .  S
C1026      C1027   1.404       .  A
C1026      H1031   1.084       .  S
C1027      C1028   1.415       .  A
C1028      N1029   1.432       .  S
N1029      H1033   1.044       .  S
N1029      H1034   1.046       .  S
N1032      H1035   1.046       .  S
N1032      H1036   1.045       .  S
C1037      C1038   1.410       .  A
C1037      C1042   1.410       .  A
C1037      H1044   1.082       .  S
C1038      C1039   1.413       .  A
C1039      C1040   1.406       .  A
C1039      N1046   1.432       .  S
C1040      C1041   1.410       .  A
C1040      H1045   1.081       .  S
C1041      C1042   1.420       .  A
C1042      N1043   1.438       .  S
N1043      H1047   1.045       .  S
N1043      H1048   1.046       .  S
N1046      H1049   1.046       .  S
N1046      H1050   1.046       .  S
C1051      C1052   1.408       .  A
C1051      C1056   1.411       .  A
C1051      H1058   1.084       .  S
C1052      C1053   1.416       .  A
C1053      C1054   1.408       .  A
C1053      N1060   1.438       .  S
C1054      C1055   1.409       .  A
C1054      H1059   1.083       .  S
C1055      C1056   1.415       .  A
C1056      N1057   1.432   1_556  S
N1057      H1061   1.045       .  S
N1057      H1062   1.046       .  S
N1060      H1063   1.046       .  S
N1060      H1064   1.046       .  S
C1065      C1066   1.409       .  A
C1065      C1070   1.394       .  A
C1065      H1072   1.083       .  S
C1066      C1067   1.417       .  A
C1067      C1068   1.419   1_655  A
C1067      N1074   1.437   1_655  S
C1068      C1069   1.415   1_455  A
C1068      H1073   1.083       .  S
C1069      C1070   1.418       .  A
C1070      N1071   1.434       .  S
N1071      H1075   1.043       .  S
N1071      H1076   1.046       .  S
N1074      H1077   1.046       .  S
N1074      H1078   1.045       .  S
C1079      C1080   1.405       .  A
C1079      C1084   1.401       .  A
C1079      H1086   1.084       .  S
C1080      C1081   1.415       .  A
C1081      C1082   1.408       .  A
C1081      N1088   1.438       .  S
C1082      C1083   1.401       .  A
C1082      H1087   1.084       .  S
C1083      C1084   1.412       .  A
C1084      N1085   1.432       .  S
N1085      H1089   1.045       .  S
N1085      H1090   1.046       .  S
N1088      H1091   1.045       .  S
N1088      H1092   1.046       .  S
C1093      C1094   1.404       .  A
C1093      C1098   1.398       .  A
C1093      H1100   1.084       .  S
C1094      C1095   1.413       .  A
C1095      C1096   1.408       .  A
C1095      N1102   1.438       .  S
C1096      C1097   1.403       .  A
C1096      H1101   1.084       .  S
C1097      C1098   1.413       .  A
C1098      N1099   1.433       .  S
N1099      H1103   1.044       .  S
N1099      H1104   1.046       .  S
N1102      H1105   1.046       .  S
N1102      H1106   1.045       .  S
C1107      C1108   1.405       .  A
C1107      C1112   1.394       .  A
C1107      H1114   1.084       .  S
C1108      C1109   1.413       .  A
C1109      C1110   1.409       .  A
C1109      N1116   1.431   1_565  S
C1110      C1111   1.403       .  A
C1110      H1115   1.084   1_565  S
C1111      C1112   1.404       .  A
C1112      N1113   1.431       .  S
N1113      H1117   1.045       .  S
N1113      H1118   1.046       .  S
N1116      H1119   1.045       .  S
N1116      H1120   1.046       .  S
C1121      C1122   1.405       .  A
C1121      C1126   1.397       .  A
C1121      H1128   1.084       .  S
C1122      C1123   1.411       .  A
C1123      C1124   1.405       .  A
C1123      N1130   1.432       .  S
C1124      C1125   1.403       .  A
C1124      H1129   1.084       .  S
C1125      C1126   1.413       .  A
C1126      N1127   1.433       .  S
N1127      H1131   1.044       .  S
N1127      H1132   1.046       .  S
N1130      H1133   1.046       .  S
N1130      H1134   1.046       .  S
C1135      C1136   1.408       .  A
C1135      C1140   1.400       .  A
C1135      H1142   1.084       .  S
C1136      C1137   1.416       .  A
C1137      C1138   1.419       .  A
C1137      N1144   1.437       .  S
C1138      C1139   1.409       .  A
C1138      H1143   1.084       .  S
C1139      C1140   1.405       .  A
C1140      N1141   1.433       .  S
N1141      H1145   1.046       .  S
N1141      H1146   1.046       .  S
N1144      H1147   1.046       .  S
N1144      H1148   1.045       .  S
C1149      C1150   1.407       .  A
C1149      C1154   1.414       .  A
C1149      H1156   1.084       .  S
C1150      C1151   1.407       .  A
C1151      C1152   1.403       .  A
C1151      N1158   1.432       .  S
C1152      C1153   1.407       .  A
C1152      H1157   1.084       .  S
C1153      C1154   1.414       .  A
C1154      N1155   1.432       .  S
N1155      H1159   1.045       .  S
N1155      H1160   1.046       .  S
N1158      H1161   1.045       .  S
N1158      H1162   1.046       .  S
C1163      C1164   1.402       .  A
C1163      C1168   1.396       .  A
C1163      H1170   1.084       .  S
C1164      C1165   1.414       .  A
C1165      C1166   1.421       .  A
C1165      N1172   1.432       .  S
C1166      C1167   1.413       .  A
C1166      H1171   1.083       .  S
C1167      C1168   1.425       .  A
C1168      N1169   1.432       .  S
N1169      H1173   1.043       .  S
N1169      H1174   1.045       .  S
N1172      H1175   1.043       .  S
N1172      H1176   1.045       .  S
C1177      C1178   1.416       .  A
C1177      C1182   1.415       .  A
C1177      H1184   1.083       .  S
C1178      C1179   1.416       .  A
C1179      C1180   1.403       .  A
C1179      N1186   1.430       .  S
C1180      C1181   1.401       .  A
C1180      H1185   1.080       .  S
C1181      C1182   1.407       .  A
C1182      N1183   1.431       .  S
N1183      H1187   1.045       .  S
N1183      H1188   1.046       .  S
N1186      H1189   1.045       .  S
N1186      H1190   1.046       .  S
C1191      C1192   1.410       .  A
C1191      C1196   1.420       .  A
C1191      H1198   1.083       .  S
C1192      C1193   1.415       .  A
C1193      C1194   1.402       .  A
C1193      N1200   1.434       .  S
C1194      C1195   1.406       .  A
C1194      H1199   1.084       .  S
C1195      C1196   1.416       .  A
C1196      N1197   1.431       .  S
N1197      H1201   1.045       .  S
N1197      H1202   1.046       .  S
N1200      H1203   1.046       .  S
N1200      H1204   1.046       .  S
C1205      C1206   1.408       .  A
C1205      C1210   1.397       .  A
C1205      H1212   1.083       .  S
C1206      C1207   1.412       .  A
C1207      C1208   1.419       .  A
C1207      N1214   1.431       .  S
C1208      C1209   1.414       .  A
C1208      H1213   1.083       .  S
C1209      C1210   1.413       .  A
C1210      N1211   1.434       .  S
N1211      H1215   1.046       .  S
N1211      H1216   1.046       .  S
N1214      H1217   1.046       .  S
N1214      H1218   1.045       .  S
C1219      C1220   1.411       .  A
C1219      C1224   1.418       .  A
C1219      H1226   1.083       .  S
C1220      C1221   1.417       .  A
C1221      C1222   1.401       .  A
C1221      N1228   1.433       .  S
C1222      C1223   1.407       .  A
C1222      H1227   1.083       .  S
C1223      C1224   1.426       .  A
C1224      N1225   1.436       .  S
N1225      H1229   1.046       .  S
N1225      H1230   1.043       .  S
N1228      H1231   1.046       .  S
N1228      H1232   1.046       .  S
C1233      C1234   1.402       .  A
C1233      C1238   1.412       .  A
C1233      H1240   1.083       .  S
C1234      C1235   1.410       .  A
C1235      C1236   1.409       .  A
C1235      N1242   1.431       .  S
C1236      C1237   1.414       .  A
C1236      H1241   1.079       .  S
C1237      C1238   1.428       .  A
C1238      N1239   1.437       .  S
N1239      H1243   1.046       .  S
N1239      H1244   1.045       .  S
N1242      H1245   1.040   1_556  S
N1242      H1246   1.046       .  S
C1247      C1248   1.412       .  A
C1247      C1252   1.416       .  A
C1247      H1254   1.083       .  S
C1248      C1249   1.403       .  A
C1249      C1250   1.397       .  A
C1249      N1256   1.433       .  S
C1250      C1251   1.413       .  A
C1250      H1255   1.083       .  S
C1251      C1252   1.413       .  A
C1252      N1253   1.437       .  S
N1253      H1257   1.046       .  S
N1253      H1258   1.045       .  S
N1256      H1259   1.046   1_455  S
N1256      H1260   1.046       .  S
C1261      C1262   1.404       .  A
C1261      C1266   1.410       .  A
C1261      H1268   1.084       .  S
C1262      C1263   1.407       .  A
C1263      C1264   1.406       .  A
C1263      N1270   1.438       .  S
C1264      C1265   1.407       .  A
C1264      H1269   1.083       .  S
C1265      C1266   1.414       .  A
C1266      N1267   1.438       .  S
N1267      H1271   1.046       .  S
N1267      H1272   1.045       .  S
N1270      H1273   1.046       .  S
N1270      H1274   1.045       .  S
C1275      C1276   1.410       .  A
C1275      C1280   1.397       .  A
C1275      H1282   1.083       .  S
C1276      C1277   1.419       .  A
C1277      C1278   1.418       .  A
C1277      N1284   1.431       .  S
C1278      C1279   1.413       .  A
C1278      H1283   1.083       .  S
C1279      C1280   1.418       .  A
C1280      N1281   1.435       .  S
N1281      H1285   1.043       .  S
N1281      H1286   1.045       .  S
N1284      H1287   1.046       .  S
N1284      H1288   1.044       .  S
C1289      C1290   1.398       .  A
C1289      C1294   1.404       .  A
C1289      H1296   1.078   1_655  S
C1290      C1291   1.410       .  A
C1291      C1292   1.416       .  A
C1291      N1298   1.437       .  S
C1292      C1293   1.414       .  A
C1292      H1297   1.082       .  S
C1293      C1294   1.416       .  A
C1294      N1295   1.429   1_655  S
N1295      H1299   1.038       .  S
N1295      H1300   1.047       .  S
N1298      H1301   1.045       .  S
N1298      H1302   1.046       .  S
C1303      C1304   1.405       .  A
C1303      C1308   1.406       .  A
C1303      H1310   1.080       .  S
C1304      C1305   1.409       .  A
C1305      C1306   1.412       .  A
C1305      N1312   1.431       .  S
C1306      C1307   1.412       .  A
C1306      H1311   1.083       .  S
C1307      C1308   1.412       .  A
C1308      N1309   1.430       .  S
N1309      H1313   1.043       .  S
N1309      H1314   1.043   1_455  S
N1312      H1315   1.045       .  S
N1312      H1316   1.046       .  S
C1317      C1318   1.415       .  A
C1317      C1322   1.424       .  A
C1317      H1324   1.083       .  S
C1318      C1319   1.415       .  A
C1319      C1320   1.401       .  A
C1319      N1326   1.433       .  S
C1320      C1321   1.405       .  A
C1320      H1325   1.084       .  S
C1321      C1322   1.413       .  A
C1322      N1323   1.436       .  S
N1323      H1327   1.046       .  S
N1323      H1328   1.045       .  S
N1326      H1329   1.046       .  S
N1326      H1330   1.046       .  S
C1331      C1332   1.413       .  A
C1331      C1336   1.421       .  A
C1331      H1338   1.084       .  S
C1332      C1333   1.416       .  A
C1333      C1334   1.398       .  A
C1333      N1340   1.432       .  S
C1334      C1335   1.407       .  A
C1334      H1339   1.083       .  S
C1335      C1336   1.416       .  A
C1336      N1337   1.429       .  S
N1337      H1341   1.047       .  S
N1337      H1342   1.041       .  S
N1340      H1343   1.046       .  S
N1340      H1344   1.046       .  S
C1345      C1346   1.407       .  A
C1345      C1350   1.405       .  A
C1345      H1352   1.083       .  S
C1346      C1347   1.420       .  A
C1347      C1348   1.413       .  A
C1347      N1354   1.432       .  S
C1348      C1349   1.407       .  A
C1348      H1353   1.084       .  S
C1349      C1350   1.417       .  A
C1350      N1351   1.433       .  S
N1351      H1355   1.046       .  S
N1351      H1356   1.046       .  S
N1354      H1357   1.046       .  S
N1354      H1358   1.046       .  S
C1359      C1360   1.408       .  A
C1359      C1364   1.401       .  A
C1359      H1366   1.082       .  S
C1360      C1361   1.420       .  A
C1361      C1362   1.417       .  A
C1361      N1368   1.432       .  S
C1362      C1363   1.409       .  A
C1362      H1367   1.084       .  S
C1363      C1364   1.423       .  A
C1364      N1365   1.433       .  S
N1365      H1369   1.043       .  S
N1365      H1370   1.045       .  S
N1368      H1371   1.046       .  S
N1368      H1372   1.045       .  S
C1373      C1374   1.407       .  A
C1373      C1378   1.412       .  A
C1373      H1380   1.083       .  S
C1374      C1375   1.418       .  A
C1375      C1376   1.394       .  A
C1375      N1382   1.434       .  S
C1376      C1377   1.400       .  A
C1376      H1381   1.084       .  S
C1377      C1378   1.423       .  A
C1378      N1379   1.432       .  S
N1379      H1383   1.040       .  S
N1379      H1384   1.047       .  S
N1382      H1385   1.046       .  S
N1382      H1386   1.046       .  S
C1387      C1388   1.417       .  A
C1387      C1392   1.410       .  A
C1387      H1394   1.083       .  S
C1388      C1389   1.422       .  A
C1389      C1390   1.406       .  A
C1389      N1396   1.432   1_545  S
C1390      C1391   1.404       .  A
C1390      H1395   1.079   1_545  S
C1391      C1392   1.410       .  A
C1392      N1393   1.432       .  S
N1393      H1397   1.045       .  S
N1393      H1398   1.045       .  S
N1396      H1399   1.046       .  S
N1396      H1400   1.042       .  S
C1401      C1402   1.409       .  A
C1401      C1406   1.405       .  A
C1401      H1408   1.084       .  S
C1402      C1403   1.420       .  A
C1403      C1404   1.402       .  A
C1403      N1410   1.427       .  S
C1404      C1405   1.405       .  A
C1404      H1409   1.084       .  S
C1405      C1406   1.418       .  A
C1406      N1407   1.433       .  S
N1407      H1411   1.041       .  S
N1407      H1412   1.045       .  S
N1410      H1413   1.060       .  S
N1410      H1414   1.028       .  S
C1415      C1416   1.409       .  A
C1415      C1420   1.390       .  A
C1415      H1422   1.084       .  S
C1416      C1417   1.415       .  A
C1417      C1418   1.413       .  A
C1417      N1424   1.431       .  S
C1418      C1419   1.409       .  A
C1418      H1423   1.083       .  S
C1419      C1420   1.409       .  A
C1420      N1421   1.435       .  S
N1421      H1425   1.044       .  S
N1421      H1426   1.046       .  S
N1424      H1427   1.045       .  S
N1424      H1428   1.045       .  S
C1429      C1430   1.399       .  A
C1429      C1434   1.401       .  A
C1429      H1436   1.077       .  S
C1430      C1431   1.407       .  A
C1431      C1432   1.412       .  A
C1431      N1438   1.437       .  S
C1432      C1433   1.416       .  A
C1432      H1437   1.082       .  S
C1433      C1434   1.417       .  A
C1434      N1435   1.433       .  S
N1435      H1439   1.046   1_565  S
N1435      H1440   1.045   1_565  S
N1438      H1441   1.045       .  S
N1438      H1442   1.046       .  S
C1443      C1444   1.404       .  A
C1443      C1448   1.404       .  A
C1443      H1450   1.084       .  S
C1444      C1445   1.411       .  A
C1445      C1446   1.406       .  A
C1445      N1452   1.432       .  S
C1446      C1447   1.405       .  A
C1446      H1451   1.080       .  S
C1447      C1448   1.421       .  A
C1448      N1449   1.434       .  S
N1449      H1453   1.043       .  S
N1449      H1454   1.045       .  S
N1452      H1455   1.045       .  S
N1452      H1456   1.046       .  S
C1457      C1458   1.405       .  A
C1457      C1462   1.410       .  A
C1457      H1464   1.079   1_565  S
C1458      C1459   1.416       .  A
C1459      C1460   1.413       .  A
C1459      N1466   1.438       .  S
C1460      C1461   1.413       .  A
C1460      H1465   1.083       .  S
C1461      C1462   1.413       .  A
C1462      N1463   1.431       .  S
N1463      H1467   1.044   1_565  S
N1463      H1468   1.045   1_565  S
N1466      H1469   1.044       .  S
N1466      H1470   1.045       .  S
