geometry optimzed in LAMMPS
_audit_creation_date              2020-11-30 
_audit_creation_method            'lammps2cif' 
_symmetry_space_group_name_H-M    'P1' 
_symmetry_Int_Tables_number       1 
_symmetry_cell_setting            triclinic 
loop_ 
_symmetry_equiv_pos_as_xyz 
  x,y,z 
_cell_length_a                    41.9571399 
_cell_length_b                    42.69857420210481 
_cell_length_c                    42.506117508176956 
_cell_angle_alpha                 90.60081354490954 
_cell_angle_beta                  90.04914029519372 
_cell_angle_gamma                 90.21276571563308 
loop_ 
_atom_site_label 
_atom_site_type_symbol 
_atom_site_fract_x 
_atom_site_fract_y 
_atom_site_fract_z 
_atom_site_charge 
O1          O  0.51447632  0.46370849  0.42128912    -0.78200
C2          C  0.43010885  0.52874892  0.42212118     0.82800
O3          O  0.54565928  0.56056407  0.49415114    -0.79300
O4          O  0.44041957  0.54859015  0.53106071    -0.80800
O5          O  0.44871342  0.43227136  0.51138483    -0.80600
O6          O  0.50828223  0.42615980  0.45667828    -0.79300
Zn7        Zn  0.49955927  0.50659417  0.44333575     1.55700
O8          O  0.41573869  0.47197171  0.50262536    -0.80600
Cd9        Cd  0.49415868  0.45328198  0.49820771     1.59700
Cd10       Cd  0.51670426  0.52885173  0.52035184     1.59600
O11         O  0.53196226  0.45335590  0.53429719    -0.80600
O12         O  0.48887580  0.50031840  0.48866995    -1.91100
Cd13       Cd  0.44242443  0.51257657  0.49355777     1.59900
O14         O  0.54791892  0.50136944  0.54957987    -0.80600
O15         O  0.42010471  0.52739394  0.45060622    -0.79300
C16         C  0.54876391  0.56308848  0.46434080     0.83300
C17         C  0.51537620  0.43443226  0.42849946     0.82900
O18         O  0.45930854  0.52169675  0.41609288    -0.78200
C19         C  0.42023153  0.44335686  0.51004380     0.83800
O20         O  0.53438615  0.54345550  0.44552572    -0.78300
C21         C  0.55069246  0.47150380  0.55098279     0.83900
C22         C  0.45877098  0.56565576  0.54909346     0.84200
O23         O  0.48881598  0.56034963  0.54945894    -0.80700
O24         O  0.45639835  0.30757573  0.22194392    -0.78200
C25         C  0.50881467  0.30408701  0.30158816     0.82800
O26         O  0.54529488  0.24056845  0.17758108    -0.79300
O27         O  0.53011230  0.19667224  0.28356867    -0.80800
O28         O  0.41498827  0.21533163  0.26960287    -0.80600
O29         O  0.41303339  0.27827816  0.22055105    -0.79300
Zn30       Zn  0.49624106  0.28349722  0.23199453     1.55700
O31         O  0.45172131  0.21514806  0.30774941    -0.80600
Cd32       Cd  0.43801311  0.23411493  0.22879269     1.59700
Cd33       Cd  0.51453842  0.21277040  0.20755214     1.59600
O34         O  0.43710091  0.20034783  0.18949165    -0.80600
O35         O  0.48568772  0.24012472  0.23851799    -1.91100
Cd36       Cd  0.49409427  0.23336353  0.28571584     1.59900
O37         O  0.48565869  0.18271187  0.17775607    -0.80600
O38         O  0.50486789  0.27665666  0.31316655    -0.79300
C39         C  0.54834573  0.27047420  0.17771036     0.83300
C40         C  0.42622046  0.30539950  0.21899334     0.82900
O41         O  0.50733879  0.30707857  0.27178465    -0.78200
C42         C  0.42310130  0.20983198  0.29822801     0.83800
O43         O  0.53195135  0.28662400  0.19754675    -0.78300
C44         C  0.45538515  0.18143193  0.17360067     0.83900
C45         C  0.54508260  0.17813144  0.26413868     0.84200
O46         O  0.54307420  0.18162385  0.23432270    -0.80700
C47         C  0.76087126  0.71057526  0.72209130     0.80500
N48         N  0.75470484  0.72758896  0.69613393    -0.77800
C49         C  0.73872444  0.75502369  0.69866779     0.82900
N50         N  0.72942209  0.76498921  0.72762614    -0.77800
C51         C  0.73625781  0.74860902  0.75383855     0.83000
N52         N  0.75230286  0.72144867  0.75091939    -0.79500
C53         C  0.73223653  0.98709803  0.97125552     0.80500
N54         N  0.74945758  0.00326391  0.94969685    -0.77800
C55         C  0.77744232  0.01696349  0.95816797     0.82900
N56         N  0.78842601  0.01383049  0.98781932    -0.77800
C57         C  0.77235082  0.99712096  0.00921191     0.83000
N58         N  0.74433262  0.98397584  0.00073500    -0.79500
C59         C  0.95618327  0.77623713  0.00070165     0.80500
N60         N  0.93265248  0.76470464  0.98182591    -0.77800
C61         C  0.94042525  0.74848590  0.95530331     0.82900
N62         N  0.97151734  0.74453224  0.94766042    -0.77800
C63         C  0.99528577  0.75579157  0.96612857     0.83000
N64         N  0.98716911  0.77174468  0.99264291    -0.79500
C65         C  0.95930899  0.99127427  0.73479120     0.80500
N66         N  0.96640401  0.02199669  0.73997851    -0.77800
C67         C  0.99071713  0.03031820  0.75963145     0.82900
N68         N  0.00693019  0.00736807  0.77435945    -0.77800
C69         C  0.99964275  0.97680508  0.76992207     0.83000
N70         N  0.97576854  0.96871826  0.75001885    -0.79500
N71         N  0.09829269  0.84956341  0.86269495    -0.36300
N72         N  0.15021795  0.81964081  0.89453794    -0.56900
N73         N  0.19729507  0.86639992  0.87210690    -0.36300
N74         N  0.14289224  0.90038043  0.84588073    -0.56900
C75         C  0.08224293  0.82745988  0.87879327     0.27200
C76         C  0.07722368  0.87217140  0.85586477     0.27200
C77         C  0.21472017  0.85216270  0.89531833     0.27200
C78         C  0.21254733  0.89285764  0.86194165     0.27200
C79         C  0.12884190  0.79589731  0.89288583     0.35900
C80         C  0.17845004  0.80645595  0.90124494     0.35900
C81         C  0.11504337  0.91254263  0.83531727     0.35900
C82         C  0.16638936  0.91942793  0.83521011     0.35900
C83         C  0.05035636  0.83556768  0.88119348    -0.21600
C84         C  0.04714390  0.86380665  0.86645907    -0.21600
C85         C  0.24221383  0.86994802  0.89962500    -0.21600
C86         C  0.24116810  0.89493319  0.87833332    -0.21600
C87         C  0.14326519  0.76757917  0.89884261    -0.22700
C88         C  0.17486697  0.77423482  0.90331674    -0.22700
C89         C  0.12075891  0.93992619  0.81916980    -0.22700
C90         C  0.15294740  0.94428954  0.81912152    -0.22700
C91         C  0.09584060  0.80045140  0.89180332    -0.18000
C92         C  0.08412346  0.89981784  0.83964059    -0.18000
C93         C  0.19985864  0.91567964  0.83982764    -0.18000
C94         C  0.20573997  0.82329936  0.91141099    -0.18000
H95         H  0.03143131  0.82261759  0.89254404     0.14900
H96         H  0.02526511  0.87696248  0.86430658     0.14900
H97         H  0.26118189  0.86542384  0.91620126     0.14900
H98         H  0.25880284  0.91335269  0.87629592     0.14900
H99         H  0.13206729  0.74478328  0.90053851     0.13200
H100        H  0.19322839  0.75764519  0.90890986     0.13200
H101        H  0.10354951  0.95521685  0.80826479     0.13200
H102        H  0.16491973  0.96399227  0.80850494     0.13200
H103        H  0.12209047  0.84901436  0.85613519     0.26400
H104        H  0.17584484  0.85823397  0.86309354     0.26400
N105        N  0.89596682  0.91233890  0.11102847    -0.36300
N106        N  0.86314440  0.94462502  0.16226526    -0.56900
N107        N  0.89142201  0.90246483  0.20945843    -0.36300
N108        N  0.92195921  0.86839357  0.15705866    -0.56900
C109        C  0.87607624  0.93033003  0.09409793     0.27200
C110        C  0.90639531  0.88952995  0.09143932     0.27200
C111        C  0.86828033  0.91715523  0.22711258     0.27200
C112        C  0.90248059  0.87637970  0.22472091     0.27200
C113        C  0.85498763  0.96327016  0.13800084     0.35900
C114        C  0.85344999  0.95957774  0.18868772     0.35900
C115        C  0.93655465  0.85831369  0.13043789     0.35900
C116        C  0.93638586  0.85344197  0.18097867     0.35900
C117        C  0.87578478  0.92012411  0.06296703    -0.21600
C118        C  0.89430865  0.89396691  0.06146777    -0.21600
C119        C  0.86518994  0.90029128  0.25473292    -0.21600
C120        C  0.88666658  0.87513205  0.25337764    -0.21600
C121        C  0.84004708  0.98998856  0.14897103    -0.22700
C122        C  0.83982222  0.98817675  0.18081056    -0.22700
C123        C  0.96019949  0.83706070  0.13721548    -0.22700
C124        C  0.96015665  0.83385614  0.16897838    -0.22700
C125        C  0.85669181  0.95464442  0.10599612    -0.18000
C126        C  0.92642637  0.86462366  0.09965389    -0.18000
C127        C  0.92641687  0.85417746  0.21296358    -0.18000
C128        C  0.85080242  0.94562338  0.21873388    -0.18000
H129        H  0.86268492  0.92980551  0.04342787     0.14900
H130        H  0.89813471  0.87973098  0.04061322     0.14900
H131        H  0.84915175  0.90555079  0.27397918     0.14900
H132        H  0.88978613  0.85756745  0.27127449     0.14900
H133        H  0.82913185  0.00851254  0.13568909     0.13200
H134        H  0.82877491  0.00543691  0.19598702     0.13200
H135        H  0.97520254  0.82432610  0.12082818     0.13200
H136        H  0.97528025  0.81763967  0.18134557     0.13200
H137        H  0.90175479  0.91512998  0.13457228     0.26400
H138        H  0.89992757  0.91036507  0.18807333     0.26400
N139        N  0.81693319  0.90781980  0.64123782    -0.36300
N140        N  0.86694776  0.92904699  0.59810508    -0.56900
N141        N  0.85021693  0.88904109  0.54503655    -0.36300
N142        N  0.80132098  0.86758413  0.58819291    -0.56900
C143        C  0.84052232  0.91769355  0.66044484     0.27200
C144        C  0.80290271  0.88292038  0.65464591     0.27200
C145        C  0.88053091  0.89818494  0.53766798     0.27200
C146        C  0.84411030  0.85957980  0.53355594     0.27200
C147        C  0.86409659  0.95093969  0.62104406     0.35900
C148        C  0.87951738  0.94374245  0.57314478     0.35900
C149        C  0.77542835  0.86687551  0.60693108     0.35900
C150        C  0.79229324  0.85549353  0.56025354     0.35900
C151        C  0.84084949  0.89962630  0.68737412    -0.21600
C152        C  0.81680409  0.87743534  0.68368374    -0.21600
C153        C  0.89388653  0.87427541  0.51962858    -0.21600
C154        C  0.87108846  0.84999857  0.51717499    -0.21600
C155        C  0.87413618  0.97987064  0.61052651    -0.22700
C156        C  0.88291934  0.97533772  0.57967455    -0.22700
C157        C  0.74941107  0.85523896  0.59053990    -0.22700
C158        C  0.75998985  0.84846178  0.56074553    -0.22700
C159        C  0.86137146  0.94232543  0.65263718    -0.18000
C160        C  0.77894019  0.86509182  0.63962727    -0.18000
C161        C  0.81447671  0.84260641  0.53890183    -0.18000
C162        C  0.89491916  0.92744670  0.54852042    -0.18000
H163        H  0.85714425  0.90166462  0.70704271     0.14900
H164        H  0.81092884  0.85892618  0.69991117     0.14900
H165        H  0.91776059  0.87386624  0.51004042     0.14900
H166        H  0.87430691  0.82773735  0.50522859     0.14900
H167        H  0.87640974  0.00133847  0.62413165     0.13200
H168        H  0.89245609  0.99249419  0.56386516     0.13200
H169        H  0.72635997  0.84916350  0.60013781     0.13200
H170        H  0.74654041  0.83650586  0.54253590     0.13200
H171        H  0.81084161  0.91753910  0.61961116     0.26400
H172        H  0.83401068  0.90283440  0.55745507     0.26400
N173        N  0.86939338  0.63924972  0.82452591    -0.36300
N174        N  0.85172530  0.58080853  0.79987200    -0.56900
N175        N  0.87234477  0.54630362  0.85610239    -0.36300
N176        N  0.89018487  0.60592588  0.88183582    -0.56900
C177        C  0.84915899  0.64706369  0.80130440     0.27200
C178        C  0.86661269  0.66130885  0.84712707     0.27200
C179        C  0.84818702  0.52758424  0.84501080     0.27200
C180        C  0.87987402  0.53842490  0.88627160     0.27200
C181        C  0.85040371  0.59719925  0.77308884     0.35900
C182        C  0.84695662  0.55077973  0.79197683     0.35900
C183        C  0.90082172  0.63560537  0.88611080     0.35900
C184        C  0.90813090  0.58768647  0.90072744     0.35900
C185        C  0.83364837  0.67477411  0.80902542    -0.21600
C186        C  0.84471003  0.68376387  0.83824198    -0.21600
C187        C  0.84060131  0.50660336  0.86864349    -0.21600
C188        C  0.86103229  0.51289520  0.89422771    -0.21600
C189        C  0.84525516  0.57750550  0.74752818    -0.22700
C190        C  0.84347604  0.54786914  0.75943632    -0.22700
C191        C  0.92547707  0.63637026  0.90776163    -0.22700
C192        C  0.93011165  0.60609642  0.91701801    -0.22700
C193        C  0.84453023  0.62932216  0.77359234    -0.18000
C194        C  0.88535566  0.66234209  0.87430632    -0.18000
C195        C  0.90248022  0.55536052  0.90606687    -0.18000
C196        C  0.83429899  0.52968836  0.81377709    -0.18000
H197        H  0.81596561  0.68700130  0.79530118     0.14900
H198        H  0.83768043  0.70447726  0.85134894     0.14900
H199        H  0.82260809  0.48840946  0.86749263     0.14900
H200        H  0.86094923  0.50095919  0.91655674     0.14900
H201        H  0.84006204  0.58405662  0.72353119     0.13200
H202        H  0.83671558  0.52703337  0.74625999     0.13200
H203        H  0.93807271  0.65677023  0.91672076     0.13200
H204        H  0.94685324  0.59878758  0.93479940     0.13200
H205        H  0.88535073  0.62057387  0.82447007     0.26400
H206        H  0.88380086  0.56378018  0.84348071     0.26400
N207        N  0.65987074  0.83767396  0.90069105    -0.36300
N208        N  0.60992126  0.89444449  0.94317700    -0.56900
N209        N  0.56123540  0.85248916  0.88402566    -0.36300
N210        N  0.61274662  0.81640137  0.85355172    -0.56900
C211        C  0.67726922  0.85438033  0.92166774     0.27200
C212        C  0.68006975  0.82262909  0.88149998     0.27200
C213        C  0.54392867  0.87492296  0.89950168     0.27200
C214        C  0.54439988  0.84053971  0.85929310     0.27200
C215        C  0.63140300  0.87236166  0.95014683     0.35900
C216        C  0.58180375  0.87932030  0.94242692     0.35900
C217        C  0.63929780  0.80176976  0.84263078     0.35900
C218        C  0.58805494  0.80689178  0.83507961     0.35900
C219        C  0.70935941  0.84981691  0.91629449    -0.21600
C220        C  0.71119825  0.82889228  0.89128351    -0.21600
C221        C  0.51513589  0.87790655  0.88375705    -0.21600
C222        C  0.51515365  0.85583670  0.85896806    -0.21600
C223        C  0.61688368  0.84379984  0.95553510    -0.22700
C224        C  0.58503039  0.84817810  0.95050655    -0.22700
C225        C  0.63138072  0.78335804  0.81669666    -0.22700
C226        C  0.59934692  0.78631262  0.81214137    -0.22700
C227        C  0.66341897  0.87609769  0.94247888    -0.18000
C228        C  0.67104962  0.80510024  0.85450801    -0.18000
C229        C  0.55551230  0.81672497  0.83728438    -0.18000
C230        C  0.55564500  0.89181628  0.92699405    -0.18000
H231        H  0.72909637  0.86073337  0.92867293     0.14900
H232        H  0.73299260  0.82054904  0.88055064     0.14900
H233        H  0.49593663  0.89374408  0.88964206     0.14900
H234        H  0.49610057  0.85209880  0.84215424     0.14900
H235        H  0.62874994  0.82165404  0.95862830     0.13200
H236        H  0.56685285  0.83012995  0.94960987     0.13200
H237        H  0.64695599  0.76921613  0.80216276     0.13200
H238        H  0.58610695  0.77479504  0.79344192     0.13200
H239        H  0.63531502  0.83827098  0.89869407     0.26400
H240        H  0.58397962  0.84578618  0.89039932     0.26400
N241        N  0.91236168  0.11667462  0.88118209    -0.36300
N242        N  0.94171679  0.17043384  0.86042374    -0.56900
N243        N  0.89764323  0.21436883  0.89507080    -0.36300
N244        N  0.86575536  0.15895524  0.91455861    -0.56900
C245        C  0.93045791  0.10479768  0.85761890     0.27200
C246        C  0.88664990  0.09817973  0.88347986     0.27200
C247        C  0.90808437  0.23179313  0.87019043     0.27200
C248        C  0.87015269  0.22658568  0.90729809     0.27200
C249        C  0.96511004  0.14998480  0.85389533     0.35900
C250        C  0.95493241  0.19888905  0.86085487     0.35900
C251        C  0.85672126  0.12987395  0.92321939     0.35900
C252        C  0.85226054  0.17905590  0.93553504     0.35900
C253        C  0.91681942  0.07745706  0.84594195    -0.21600
C254        C  0.88890235  0.07333681  0.86226242    -0.21600
C255        C  0.88687094  0.25645251  0.86682441    -0.21600
C256        C  0.86349289  0.25355745  0.89047180    -0.21600
C257        C  0.99373608  0.16529089  0.84976423    -0.22700
C258        C  0.98752053  0.19638440  0.85543712    -0.22700
C259        C  0.83738019  0.13139850  0.94957355    -0.22700
C260        C  0.83476076  0.16236516  0.95755331    -0.22700
C261        C  0.95851011  0.11885410  0.84628519    -0.18000
C262        C  0.86232464  0.10217116  0.90565433    -0.18000
C263        C  0.85128730  0.21209096  0.93212135    -0.18000
C264        C  0.93661443  0.22461996  0.85194547    -0.18000
H265        H  0.92572477  0.06235229  0.82735576     0.14900
H266        H  0.87215013  0.05425258  0.85890499     0.14900
H267        H  0.88812087  0.27471112  0.84940806     0.14900
H268        H  0.84323793  0.26882069  0.89391730     0.14900
H269        H  0.01595129  0.15542436  0.84159698     0.13200
H270        H  0.00365638  0.21558954  0.85087189     0.13200
H271        H  0.82565216  0.11219296  0.96137040     0.13200
H272        H  0.82024548  0.17143504  0.97657515     0.13200
H273        H  0.91729484  0.13590099  0.89568031     0.26400
H274        H  0.90910590  0.19463181  0.90360850     0.26400
O275        O  0.26353007  0.41653813  0.21276128    -0.78200
C276        C  0.20887244  0.42654660  0.30139860     0.82800
O277        O  0.17873256  0.49416347  0.17788252    -0.79300
O278        O  0.19519497  0.53751679  0.28589361    -0.80800
O279        O  0.30932541  0.50781026  0.26791032    -0.80600
O280        O  0.30359446  0.45056677  0.21125626    -0.79300
Zn281      Zn  0.22416989  0.44307907  0.22955669     1.55700
O282        O  0.27410051  0.51269222  0.30693474    -0.80600
Cd283      Cd  0.28167368  0.49294629  0.22759255     1.59700
Cd284      Cd  0.20721694  0.51913167  0.21066163     1.59600
O285        O  0.28191691  0.52884499  0.19226532    -0.80600
O286        O  0.23490093  0.48787626  0.23863441    -1.91100
Cd287      Cd  0.22883808  0.49743669  0.28579109     1.59900
O288        O  0.23501595  0.55113360  0.18342106    -0.80600
O289        O  0.21418178  0.45488923  0.31108738    -0.79300
C290        C  0.17548713  0.46461979  0.17393385     0.83300
C291        C  0.29296412  0.42260885  0.20723651     0.82900
O292        O  0.21077317  0.42006881  0.27174296    -0.78200
C293        C  0.30292933  0.51531226  0.29663226     0.83800
O294        O  0.18952224  0.44513713  0.19260397    -0.78300
C295        C  0.26508361  0.55051108  0.17916880     0.83900
C296        C  0.17929158  0.55582050  0.26711505     0.84200
O297        O  0.17852888  0.55029609  0.23754848    -0.80700
O298        O  0.27351371  0.17394445  0.53252109    -0.78200
C299        C  0.18710742  0.17866965  0.47277131     0.82800
O300        O  0.30653430  0.24386812  0.43622987    -0.79300
O301        O  0.20334827  0.28166853  0.44424990    -0.80800
O302        O  0.21215353  0.26720588  0.56506988    -0.80600
O303        O  0.26791993  0.21012704  0.56991505    -0.79300
Zn304      Zn  0.25774855  0.19681482  0.49075864     1.55700
O305        O  0.17732823  0.26729069  0.52547507    -0.80600
Cd306      Cd  0.25487471  0.25087261  0.54313359     1.59700
Cd307      Cd  0.27773625  0.27189092  0.46739471     1.59600
O308        O  0.29040500  0.28744094  0.54398156    -0.80600
O309        O  0.24862700  0.24228710  0.49624710    -1.91100
Cd310      Cd  0.20231226  0.25019239  0.48506818     1.59900
O311        O  0.30518724  0.30379736  0.49639753    -0.80600
O312        O  0.17780808  0.20725438  0.47435030    -0.79300
C313        C  0.30565256  0.21406130  0.43251129     0.83300
C314        C  0.27463655  0.18184378  0.56183789     0.82900
O315        O  0.21633909  0.17187820  0.47823373    -0.78200
C316        C  0.18404136  0.27242062  0.55459883     0.83800
O317        O  0.28981062  0.19679067  0.45205685    -0.78300
C318        C  0.30658132  0.30635627  0.52651690     0.83900
C319        C  0.22228199  0.29828603  0.42672567     0.84200
O320        O  0.25199826  0.29958933  0.43338374    -0.80700
O321        O  0.52472078  0.77175837  0.82142368    -0.78200
C322        C  0.43480850  0.71824779  0.81330339     0.82800
O323        O  0.55781854  0.68256072  0.74860288    -0.79300
O324        O  0.44919284  0.70066323  0.70707239    -0.80800
O325        O  0.46867603  0.81485047  0.73511301    -0.80600
O326        O  0.53105596  0.80909395  0.78605865    -0.79300
Zn327      Zn  0.50627880  0.73334871  0.79662207     1.55700
O328        O  0.42829014  0.78086903  0.73342915    -0.80600
Cd329      Cd  0.51044283  0.78701122  0.74536155     1.59700
Cd330      Cd  0.52544434  0.71027980  0.72203248     1.59600
O331        O  0.54405099  0.78416640  0.70682424    -0.80600
O332        O  0.49844340  0.74143192  0.75191437    -1.91100
Cd333      Cd  0.45075510  0.73670734  0.74399811     1.59900
O334        O  0.55441302  0.73553257  0.68958039    -0.80600
O335        O  0.42518437  0.72295480  0.78514772    -0.79300
C336        C  0.56016064  0.68193797  0.77855479     0.83300
C337        C  0.53384329  0.79944604  0.81436350     0.82900
O338        O  0.46451367  0.72092645  0.82011995    -0.78200
C339        C  0.43871207  0.80916301  0.73140666     0.83800
O340        O  0.54131335  0.69874368  0.79576224    -0.78300
C341        C  0.55810182  0.76515036  0.68727950     0.83900
C342        C  0.46548358  0.68051246  0.69042944     0.84200
O343        O  0.49584004  0.67952225  0.69348491    -0.80700
O344        O  0.18252146  0.71553789  0.97914252    -0.78200
C345        C  0.18470117  0.77005583  0.06220062     0.82800
O346        O  0.25302878  0.80596290  0.94172219    -0.79300
O347        O  0.29583277  0.79616587  0.05036722    -0.80800
O348        O  0.27025565  0.68036335  0.04155225    -0.80600
O349        O  0.21751377  0.67706803  0.98215498    -0.79300
Zn350      Zn  0.20676042  0.75549434  0.99312152     1.55700
O351        O  0.26745931  0.72072666  0.07491407    -0.80600
Cd352      Cd  0.25945859  0.70266956  0.99711620     1.59700
Cd353      Cd  0.28081925  0.77887544  0.97468795     1.59600
O354        O  0.29833327  0.70195881  0.96286502    -0.80600
O355        O  0.25151646  0.74972607  0.00323181    -1.91100
Cd356      Cd  0.25693529  0.76152324  0.04970747     1.59900
O357        O  0.31337940  0.75032481  0.94843720    -0.80600
O358        O  0.21271402  0.77406094  0.07374816    -0.79300
C359        C  0.22258089  0.80722689  0.93927045     0.83300
C360        C  0.18894071  0.68637409  0.97704160     0.82900
O361        O  0.18206637  0.76277401  0.03320012    -0.78200
C362        C  0.27140033  0.69138531  0.06979933     0.83800
O363        O  0.20483724  0.79119596  0.95831939    -0.78300
C364        C  0.31722473  0.72055178  0.94744849     0.83900
C365        C  0.31332617  0.81346671  0.03222558     0.84200
O366        O  0.31045923  0.81057469  0.00225745    -0.80700
O367        O  0.00866880  0.48559957  0.92672604    -0.78200
C368        C  0.92245429  0.54140407  0.93251013     0.82800
O369        O  0.04167609  0.57580337  0.00357070    -0.79300
O370        O  0.93694209  0.55935158  0.04369200    -0.80800
O371        O  0.94896934  0.44423081  0.01413820    -0.80600
O372        O  0.00741546  0.44566875  0.95966828    -0.79300
Zn373      Zn  0.99309295  0.52529101  0.95179100     1.55700
O374        O  0.91278837  0.48219118  0.01929417    -0.80600
Cd375      Cd  0.99101672  0.46906456  0.00135985     1.59700
Cd376      Cd  0.01244626  0.54295245  0.02691622     1.59600
O377        O  0.02895517  0.46731035  0.03561392    -0.80600
O378        O  0.98305848  0.51587091  0.99593447    -1.91100
Cd379      Cd  0.93604367  0.52501862  0.00418861     1.59900
O380        O  0.04528287  0.51500142  0.05135784    -0.80600
O381        O  0.91167511  0.53869568  0.96077417    -0.79300
C382        C  0.04415077  0.57980293  0.97403105     0.83300
C383        C  0.01352426  0.45651900  0.93238350     0.82900
O384        O  0.95225798  0.53764740  0.92710356    -0.78200
C385        C  0.92082286  0.45315498  0.02167267     0.83800
O386        O  0.02784499  0.56227655  0.95463305    -0.78300
C387        C  0.04856258  0.48534749  0.05103302     0.83900
C388        C  0.95650221  0.57235990  0.06393270     0.84200
O389        O  0.98654416  0.56874805  0.06112908    -0.80700
O390        O  0.32060639  0.02372071  0.79260258    -0.78200
C391        C  0.31403789  0.94076682  0.73151606     0.82800
O392        O  0.24397945  0.06178142  0.70018378    -0.79300
O393        O  0.20224642  0.95748815  0.71752238    -0.80800
O394        O  0.22260731  0.96742933  0.82909432    -0.80600
O395        O  0.28467598  0.01788719  0.83072086    -0.79300
Zn396      Zn  0.29558904  0.01153600  0.75028377     1.55700
O397        O  0.22652796  0.93082097  0.79171977    -0.80600
Cd398      Cd  0.24054530  0.00936680  0.80652232     1.59700
Cd399      Cd  0.21918699  0.03270134  0.73276719     1.59600
O400        O  0.20792624  0.04997266  0.80894826    -0.80600
O401        O  0.24972071  0.00263707  0.75967846    -1.91100
Cd402      Cd  0.24203594  0.95594155  0.75053874     1.59900
O403        O  0.19357171  0.06634089  0.76138474    -0.80600
O404        O  0.28526833  0.93106237  0.73588645    -0.79300
C405        C  0.27400153  0.06652373  0.69893905     0.83300
C406        C  0.31345349  0.02368574  0.82207550     0.82900
O407        O  0.32021312  0.97024549  0.73484715    -0.78200
C408        C  0.21970447  0.93862739  0.82020016     0.83800
O409        O  0.29309371  0.04944212  0.71589712    -0.78300
C410        C  0.19253093  0.06967526  0.79134598     0.83900
C411        C  0.18195107  0.97623066  0.70431711     0.84200
O412        O  0.18475291  0.00597755  0.70711187    -0.80700
O413        O  0.67240815  0.72405882  0.48146686    -0.78200
C414        C  0.68830507  0.77215982  0.56472578     0.82800
O415        O  0.74751451  0.80477273  0.43720206    -0.79300
O416        O  0.79081622  0.79098465  0.54520687    -0.80800
O417        O  0.75621886  0.67293586  0.52786436    -0.80600
O418        O  0.69916480  0.68018325  0.47467774    -0.79300
Zn419      Zn  0.70155044  0.76058438  0.49333195     1.55700
O420        O  0.77170562  0.70603176  0.56575751    -0.80600
Cd421      Cd  0.74592420  0.69987955  0.48643406     1.59700
Cd422      Cd  0.77420855  0.77423161  0.46826007     1.59600
O423        O  0.78334370  0.69778172  0.44934464    -0.80600
O424        O  0.74529798  0.74649563  0.49842099    -1.91100
Cd425      Cd  0.75733736  0.75117800  0.54550396     1.59900
O426        O  0.80452343  0.74491847  0.43979824    -0.80600
O427        O  0.71656221  0.76512173  0.57373890    -0.79300
C428        C  0.71792980  0.81196169  0.43914333     0.83300
C429        C  0.67241793  0.69465064  0.47566839     0.82900
O430        O  0.68118390  0.77111513  0.53552186    -0.78200
C431        C  0.76719334  0.67764253  0.55579222     0.83800
O432        O  0.70068293  0.79811082  0.46008141    -0.78300
C433        C  0.80419620  0.71517312  0.43487321     0.83900
C434        C  0.80386264  0.81063891  0.52574285     0.84200
O435        O  0.80168495  0.80655889  0.49590716    -0.80700
O436        O  0.02802755  0.78429336  0.32384050    -0.78200
C437        C  0.94030597  0.73797789  0.31814962     0.82800
O438        O  0.05688644  0.69758054  0.24252854    -0.79300
O439        O  0.94465672  0.71788687  0.21161016    -0.80800
O440        O  0.97294558  0.83310176  0.23778183    -0.80600
O441        O  0.02743272  0.82626003  0.29388276    -0.79300
Zn442      Zn  0.01166681  0.74682894  0.29528538     1.55700
O443        O  0.93096702  0.80100383  0.23354439    -0.80600
Cd444      Cd  0.01276005  0.80457153  0.25017141     1.59700
Cd445      Cd  0.02389724  0.72901585  0.22014967     1.59600
O446        O  0.04970372  0.80413394  0.21443220    -0.80600
O447        O  0.99932463  0.75861192  0.25276686    -1.91100
Cd448      Cd  0.94999027  0.75557449  0.24758282     1.59900
O449        O  0.05329077  0.75745527  0.19002907    -0.80600
O450        O  0.92552779  0.74452208  0.29254539    -0.79300
C451        C  0.06207234  0.69363643  0.27190056     0.83300
C452        C  0.03165782  0.81398053  0.32089929     0.82900
O453        O  0.97071755  0.73797009  0.31774079    -0.78200
C454        C  0.94318553  0.82873995  0.23185311     0.83800
O455        O  0.04531438  0.70904436  0.29249642    -0.78300
C456        C  0.06146159  0.78644973  0.19235444     0.83900
C457        C  0.96059249  0.69795762  0.19428110     0.84200
O458        O  0.99118659  0.69941534  0.19359637    -0.80700
O459        O  0.58979592  0.01527379  0.97669601    -0.78200
C460        C  0.57782399  0.96716039  0.06284050     0.82800
O461        O  0.51383028  0.92866088  0.93971897    -0.79300
O462        O  0.46535687  0.95088855  0.03898751    -0.80800
O463        O  0.49466781  0.06170857  0.02407219    -0.80600
O464        O  0.55974970  0.05759229  0.97288338    -0.79300
Zn465      Zn  0.56261884  0.97786051  0.99097145     1.55700
O466        O  0.49505822  0.02721272  0.06332351    -0.80600
Cd467      Cd  0.51372699  0.03608317  0.98439589     1.59700
Cd468      Cd  0.48790705  0.96207081  0.96551996     1.59600
O469        O  0.47893200  0.03505166  0.94587786    -0.80600
O470        O  0.51782527  0.98980715  0.99571569    -1.91100
Cd471      Cd  0.50732431  0.98291128  0.04210760     1.59900
O472        O  0.45980808  0.98778746  0.93315789    -0.80600
O473        O  0.54839525  0.96954994  0.07098235    -0.79300
C474        C  0.54321193  0.92166695  0.94211085     0.83300
C475        C  0.58732219  0.04455848  0.97123843     0.82900
O476        O  0.58505791  0.96929966  0.03367602    -0.78200
C477        C  0.48905013  0.05478291  0.05296085     0.83800
O478        O  0.56213042  0.93816239  0.95995953    -0.78300
C479        C  0.45986437  0.01731105  0.92918450     0.83900
C480        C  0.44679778  0.93603094  0.01903311     0.84200
O481        O  0.45312956  0.93617266  0.98977162    -0.80700
C482        C  0.30593415  0.80702453  0.25334150     0.80500
N483        N  0.30530639  0.77602119  0.24588193    -0.77800
C484        C  0.28142258  0.75714601  0.25612249     0.82900
N485        N  0.25791631  0.76988414  0.27388290    -0.77800
C486        C  0.25825896  0.80078251  0.28107684     0.83000
N487        N  0.28227691  0.81903654  0.27106798    -0.79500
N488        N  0.38292249  0.64393699  0.33142573    -0.36300
N489        N  0.34342477  0.59307537  0.30630525    -0.56900
N490        N  0.36780341  0.55013719  0.35548919    -0.36300
N491        N  0.40939200  0.60189519  0.37896937    -0.56900
C492        C  0.36909733  0.65944529  0.30753254     0.27200
C493        C  0.40211727  0.66438109  0.34672658     0.27200
C494        C  0.34947177  0.52969306  0.33783661     0.27200
C495        C  0.38759555  0.53395149  0.37540993     0.27200
C496        C  0.33247002  0.61694598  0.28846390     0.35900
C497        C  0.32390332  0.56843206  0.30044605     0.35900
C498        C  0.41987297  0.62974446  0.39071076     0.35900
C499        C  0.41685030  0.58004737  0.40055342     0.35900
C500        C  0.38055755  0.68994436  0.30690306    -0.21600
C501        C  0.40150917  0.69303665  0.33157768    -0.21600
C502        C  0.35731733  0.49970168  0.34741845    -0.21600
C503        C  0.38106290  0.50233282  0.37062663    -0.21600
C504        C  0.30662380  0.60732334  0.27074629    -0.22700
C505        C  0.30122130  0.57697908  0.27825221    -0.22700
C506        C  0.43424569  0.62556457  0.41964464    -0.22700
C507        C  0.43281129  0.59430336  0.42566930    -0.22700
C508        C  0.34368469  0.64815630  0.28876777    -0.18000
C509        C  0.41698970  0.65922171  0.37607097    -0.18000
C510        C  0.41060536  0.54729522  0.39805160    -0.18000
C511        C  0.32621178  0.53781571  0.31340369    -0.18000
H512        H  0.37352480  0.70844826  0.29115335     0.14900
H513        H  0.41370821  0.71441323  0.33848860     0.14900
H514        H  0.34727206  0.47803922  0.33836359     0.14900
H515        H  0.39223058  0.48303168  0.38263749     0.14900
H516        H  0.29290327  0.62076020  0.25408869     0.13200
H517        H  0.28287341  0.56261812  0.26754003     0.13200
H518        H  0.44496684  0.64314897  0.43485805     0.13200
H519        H  0.44235874  0.58355910  0.44656202     0.13200
H520        H  0.37743213  0.62164313  0.33869620     0.26400
H521        H  0.36619812  0.57425439  0.35449814     0.26400
C522        C  0.53007688  0.99428954  0.23768040     0.80500
N523        N  0.52343114  0.00060057  0.20720059    -0.77800
C524        C  0.49675115  0.01681923  0.19963854     0.82900
N525        N  0.47693270  0.02613904  0.22315736    -0.77800
C526        C  0.48311758  0.01934308  0.25356405     0.83000
N527        N  0.50959726  0.00304352  0.26061834    -0.79500
N528        N  0.61146495  0.89205656  0.35501699    -0.36300
N529        N  0.64976931  0.85982207  0.40504374    -0.56900
N530        N  0.70620464  0.86910263  0.36833733    -0.36300
N531        N  0.66532553  0.90233183  0.32168909    -0.56900
C532        C  0.59334495  0.89443039  0.38068553     0.27200
C533        C  0.60141480  0.91394456  0.33467985     0.27200
C534        C  0.71831273  0.85763401  0.39581818     0.27200
C535        C  0.72571812  0.89203047  0.35655941     0.27200
C536        C  0.61885596  0.85201067  0.41041078     0.35900
C537        C  0.66767938  0.83541569  0.41515419     0.35900
C538        C  0.64452628  0.90664079  0.29822862     0.35900
C539        C  0.69396457  0.89907830  0.30885255     0.35900
C540        C  0.57102801  0.91810381  0.37677498    -0.21600
C541        C  0.57630769  0.93063308  0.34748116    -0.21600
C542        C  0.74725223  0.87281923  0.40109602    -0.21600
C543        C  0.75149118  0.89487114  0.37694430    -0.21600
C544        C  0.61693614  0.82297936  0.42414654    -0.22700
C545        C  0.64755333  0.81226558  0.42654538    -0.22700
C546        C  0.65963280  0.90620312  0.26955971    -0.22700
C547        C  0.69121802  0.90105317  0.27622105    -0.22700
C548        C  0.59223446  0.87084117  0.40313777    -0.18000
C549        C  0.61389021  0.91711564  0.30433666    -0.18000
C550        C  0.72038854  0.90797073  0.32681622    -0.18000
C551        C  0.70184688  0.83515850  0.41589520    -0.18000
H552        H  0.55195093  0.92459440  0.39261546     0.14900
H553        H  0.56272198  0.94907617  0.33654635     0.14900
H554        H  0.76303109  0.86941209  0.42090032     0.14900
H555        H  0.77162218  0.91053860  0.37433801     0.14900
H556        H  0.59561708  0.81032682  0.43079157     0.13200
H557        H  0.65361815  0.78933666  0.43483311     0.13200
H558        H  0.64933201  0.91117017  0.24684180     0.13200
H559        H  0.71023480  0.90132502  0.25911576     0.13200
H560        H  0.62760490  0.87401943  0.35062410     0.26400
H561        H  0.68524110  0.86104281  0.35780951     0.26400
N562        N  0.38054104  0.91875775  0.13196375    -0.36300
N563        N  0.41603718  0.96028136  0.07283307    -0.56900
N564        N  0.37197667  0.88478229  0.04127471    -0.36300
N565        N  0.35587195  0.85810478  0.09855141    -0.56900
C566        C  0.39770590  0.94364924  0.14262154     0.27200
C567        C  0.38062616  0.89732726  0.15482902     0.27200
C568        C  0.39641786  0.89557780  0.02301545     0.27200
C569        C  0.36057748  0.85659481  0.03074854     0.27200
C570        C  0.39545708  0.97147103  0.09386377     0.35900
C571        C  0.39910166  0.94683759  0.04977434     0.35900
C572        C  0.34504507  0.85819605  0.12843877     0.35900
C573        C  0.33292167  0.84430960  0.08043692     0.35900
C574        C  0.40920930  0.93765167  0.17248506    -0.21600
C575        C  0.39825877  0.90839195  0.18032082    -0.21600
C576        C  0.40111399  0.87307443  0.99957527    -0.21600
C577        C  0.37802549  0.84914947  0.00382940    -0.21600
C578        C  0.36456598  0.96733908  0.08310786    -0.22700
C579        C  0.36686651  0.95238906  0.05431774    -0.22700
C580        C  0.31557926  0.84379128  0.12985689    -0.22700
C581        C  0.30739564  0.83595370  0.09959232    -0.22700
C582        C  0.40476812  0.97065911  0.12502575    -0.18000
C583        C  0.36171640  0.87010903  0.15482455    -0.18000
C584        C  0.33604488  0.83846825  0.04724192    -0.18000
C585        C  0.41356261  0.92489376  0.02966438    -0.18000
H586        H  0.42417077  0.95264327  0.18691302     0.14900
H587        H  0.40229531  0.89679169  0.20248421     0.14900
H588        H  0.41890076  0.87383910  0.98118408     0.14900
H589        H  0.37562373  0.82807206  0.98966558     0.14900
H590        H  0.34300015  0.97019990  0.09667313     0.13200
H591        H  0.34718092  0.94353221  0.04030955     0.13200
H592        H  0.30075465  0.84065648  0.15042131     0.13200
H593        H  0.28435533  0.82659487  0.09319969     0.13200
H594        H  0.36860720  0.91632971  0.11067345     0.26400
H595        H  0.36324055  0.89626036  0.06097177     0.26400
C596        C  0.22867577  0.97249139  0.52071124     0.80500
N597        N  0.22784053  0.99510199  0.49832660    -0.77800
C598        C  0.25262414  0.01513997  0.49478384     0.82900
N599        N  0.27871089  0.01206844  0.51310377    -0.77800
C600        C  0.27995065  0.98977758  0.53521180     0.83000
N601        N  0.25511105  0.96965822  0.53882066    -0.79500
C602        C  0.44875655  0.80951169  0.48309230     0.80500
N603        N  0.44151348  0.78082220  0.47105063    -0.77800
C604        C  0.44835526  0.77442945  0.44038763     0.82900
N605        N  0.46337251  0.79615947  0.42266826    -0.77800
C606        C  0.47074313  0.82479459  0.43464708     0.83000
N607        N  0.46299560  0.83102895  0.46480540    -0.79500
N608        N  0.41221428  0.90422720  0.62035230    -0.36300
N609        N  0.42889942  0.85492702  0.66181934    -0.56900
N610        N  0.37872321  0.87670487  0.70703826    -0.36300
N611        N  0.36533896  0.92891524  0.66348415    -0.56900
C612        C  0.43800137  0.89232125  0.60605117     0.27200
C613        C  0.40666124  0.93231514  0.60765851     0.27200
C614        C  0.39728656  0.85757851  0.72535151     0.27200
C615        C  0.36071100  0.89667451  0.72541305     0.27200
C616        C  0.43918806  0.84282272  0.63413242     0.35900
C617        C  0.42584379  0.83041092  0.68116698     0.35900
C618        C  0.35631303  0.94121086  0.63563823     0.35900
C619        C  0.33877857  0.92801867  0.68137803     0.35900
C620        C  0.44978190  0.91352011  0.58445136    -0.21600
C621        C  0.43011554  0.93928388  0.58587107    -0.21600
C622        C  0.39039306  0.86527605  0.75648761    -0.21600
C623        C  0.36758868  0.88952093  0.75652590    -0.21600
C624        C  0.44330059  0.81083407  0.63592909    -0.22700
C625        C  0.43537918  0.80295952  0.66589493    -0.22700
C626        C  0.32404894  0.94811304  0.63601547    -0.22700
C627        C  0.31305663  0.94011608  0.66504480    -0.22700
C628        C  0.44527427  0.86047631  0.60718858    -0.18000
C629        C  0.37713547  0.94710497  0.61018506    -0.18000
C630        C  0.33822201  0.92015665  0.71346261    -0.18000
C631        C  0.41889302  0.83307505  0.71345454    -0.18000
H632        H  0.46883059  0.90989265  0.56772319     0.14900
H633        H  0.43091985  0.95922392  0.57037748     0.14900
H634        H  0.40054723  0.85448391  0.77709914     0.14900
H635        H  0.35736648  0.90060607  0.77716051     0.14900
H636        H  0.45172516  0.79499303  0.61773747     0.13200
H637        H  0.43640681  0.77950574  0.67518773     0.13200
H638        H  0.30964667  0.95767797  0.61738148     0.13200
H639        H  0.28878154  0.94282994  0.67319622     0.13200
H640        H  0.39629049  0.89161858  0.63406764     0.26400
H641        H  0.37764116  0.87550215  0.68261901     0.26400
N642        N  0.34706017  0.09045139  0.36160349    -0.36300
N643        N  0.39028715  0.13571907  0.33162902    -0.56900
N644        N  0.35691746  0.18922834  0.35845543    -0.36300
N645        N  0.31682373  0.14279835  0.39028131    -0.56900
C646        C  0.37259737  0.07228384  0.35615106     0.27200
C647        C  0.32968048  0.07672212  0.38431883     0.27200
C648        C  0.38259626  0.20348806  0.34511286     0.27200
C649        C  0.34619903  0.20650221  0.38362116     0.27200
C650        C  0.39848923  0.10792967  0.31826534     0.35900
C651        C  0.39962032  0.15833039  0.31139555     0.35900
C652        C  0.29383995  0.12075332  0.39181832     0.35900
C653        C  0.30230049  0.17040553  0.39465911     0.35900
C654        C  0.37117215  0.04598622  0.37499381    -0.21600
C655        C  0.34394710  0.04890617  0.39308544    -0.21600
C656        C  0.38780277  0.23142386  0.36141731    -0.21600
C657        C  0.36524587  0.23312426  0.38583043    -0.21600
C658        C  0.41312601  0.11286303  0.28953757    -0.22700
C659        C  0.41342339  0.14456644  0.28494887    -0.22700
C660        C  0.26442818  0.13425989  0.39724173    -0.22700
C661        C  0.26983586  0.16593772  0.39851351    -0.22700
C662        C  0.39543020  0.07833716  0.33284756    -0.18000
C663        C  0.30113703  0.08921892  0.39635930    -0.18000
C664        C  0.31910210  0.19778950  0.40297726    -0.18000
C665        C  0.40040657  0.19096392  0.31862094    -0.18000
H666        H  0.38790300  0.02677129  0.37555343     0.14900
H667        H  0.33560883  0.03249490  0.41050796     0.14900
H668        H  0.40636873  0.24841304  0.35678621     0.14900
H669        H  0.36315513  0.25185338  0.40302570     0.14900
H670        H  0.42314371  0.09554844  0.27367759     0.13200
H671        H  0.42424040  0.15604999  0.26504971     0.13200
H672        H  0.24202458  0.12244517  0.40167337     0.13200
H673        H  0.25261473  0.18380049  0.40400821     0.13200
H674        H  0.34105482  0.11061268  0.34939737     0.26400
H675        H  0.34669776  0.16860694  0.34993929     0.26400
N676        N  0.14629467  0.86176592  0.41684531    -0.36300
N677        N  0.09136988  0.88184104  0.44873237    -0.56900
N678        N  0.04771918  0.86126584  0.39826785    -0.36300
N679        N  0.10424320  0.84230678  0.36469111    -0.56900
C680        C  0.15850862  0.88072790  0.43940707     0.27200
C681        C  0.16620173  0.86308323  0.39217607     0.27200
C682        C  0.03062557  0.88494633  0.41224936     0.27200
C683        C  0.03520557  0.85396443  0.36940310     0.27200
C684        C  0.11174187  0.87999927  0.47306388     0.35900
C685        C  0.06223297  0.88539689  0.46095151     0.35900
C686        C  0.13319740  0.83265903  0.35450214     0.35900
C687        C  0.08258047  0.82716553  0.34638650     0.35900
C688        C  0.18688702  0.89389756  0.42914222    -0.21600
C689        C  0.19180261  0.88259291  0.39910601    -0.21600
C690        C  0.00602189  0.89247321  0.39180384    -0.21600
C691        C  0.00844722  0.87255770  0.36532614    -0.21600
C692        C  0.09552363  0.88177269  0.50135095    -0.22700
C693        C  0.06388466  0.88514269  0.49363351    -0.22700
C694        C  0.12995894  0.81174793  0.32963945    -0.22700
C695        C  0.09811914  0.80868397  0.32421459    -0.22700
C696        C  0.14424047  0.88588868  0.46892328    -0.18000
C697        C  0.16267078  0.84515682  0.36466887    -0.18000
C698        C  0.04917381  0.83204445  0.34691980    -0.18000
C699        C  0.03749517  0.89843479  0.44318897    -0.18000
H700        H  0.20232627  0.90998729  0.44184339     0.14900
H701        H  0.21190755  0.88793684  0.38412478     0.14900
H702        H  0.98799144  0.91015551  0.39558298     0.14900
H703        H  0.99313526  0.87283264  0.34483776     0.14900
H704        H  0.10568758  0.88341017  0.52473644     0.13200
H705        H  0.04468942  0.88986032  0.50998194     0.13200
H706        H  0.14859180  0.80047258  0.31611286     0.13200
H707        H  0.08775687  0.79522600  0.30513931     0.13200
H708        H  0.12618052  0.84750003  0.41864772     0.26400
H709        H  0.06718554  0.84994891  0.40809360     0.26400
O710        O  0.81536029  0.03938186  0.31010957    -0.78200
C711        C  0.82410760  0.96118279  0.23778167     0.82800
O712        O  0.75045731  0.07940022  0.21629128    -0.79300
O713        O  0.71577638  0.97055788  0.21127750    -0.80800
O714        O  0.72825426  0.96521917  0.32850157    -0.80600
O715        O  0.77466689  0.02863747  0.34206066    -0.79300
Zn716      Zn  0.79852180  0.02634982  0.26464579     1.55700
O717        O  0.74309029  0.93854077  0.28597812    -0.80600
Cd718      Cd  0.73668664  0.01314937  0.31225321     1.59700
Cd719      Cd  0.72264698  0.04396056  0.23938318     1.59600
O720        O  0.69499432  0.04507534  0.31417258    -0.80600
O721        O  0.75245573  0.01426411  0.26650084    -1.91100
Cd722      Cd  0.75084551  0.97002094  0.24919268     1.59900
O723        O  0.68579749  0.06581392  0.26713885    -0.80600
O724        O  0.79545516  0.95161629  0.23346745    -0.79300
C725        C  0.78075991  0.08338955  0.21597934     0.83300
C726        C  0.80346731  0.03809330  0.33794564     0.82900
O727        O  0.82887549  0.98836860  0.25037921    -0.78200
C728        C  0.73382797  0.93883228  0.31461562     0.83800
O729        O  0.79899337  0.06479281  0.23198040    -0.78300
C730        C  0.67813274  0.06315115  0.29621660     0.83900
C731        C  0.69998992  0.99034804  0.19424254     0.84200
O732        O  0.69919771  0.01940526  0.20178617    -0.80700
O733        O  0.82958116  0.23218527  0.98187636    -0.78200
C734        C  0.80630988  0.31932151  0.03894420     0.82800
O735        O  0.75285931  0.19563824  0.07326566    -0.79300
O736        O  0.69685604  0.28638761  0.04385502    -0.80800
O737        O  0.73512120  0.27748129  0.93489814    -0.80600
O738        O  0.79691431  0.22932170  0.94068500    -0.79300
Zn739      Zn  0.80120318  0.24666358  0.02179575     1.55700
O740        O  0.72664840  0.31530017  0.97019895    -0.80600
Cd741      Cd  0.75192010  0.23928211  0.96222449     1.59700
Cd742      Cd  0.72853279  0.21622230  0.03551605     1.59600
O743        O  0.72034839  0.19921692  0.96061307    -0.80600
O744        O  0.75585682  0.24905452  0.00901641    -1.91100
Cd745      Cd  0.73933199  0.29360670  0.01477043     1.59900
O746        O  0.70912652  0.17958025  0.00786170    -0.80600
O747        O  0.77637109  0.32361273  0.03389270    -0.79300
C748        C  0.78182228  0.19988401  0.08104471     0.83300
C749        C  0.82512954  0.22758720  0.95206180     0.82900
O750        O  0.81846094  0.29193682  0.03488790    -0.78200
C751        C  0.72644099  0.30556515  0.94138835     0.83800
O752        O  0.80047684  0.21668298  0.06329669    -0.78300
C753        C  0.70759277  0.17772178  0.97797177     0.83900
C754        C  0.67991927  0.26468094  0.05730802     0.84200
O755        O  0.68892243  0.23632356  0.05719199    -0.80700
C756        C  0.29699272  0.25028954  0.80102823     0.80500
N757        N  0.31727316  0.26110215  0.77870387    -0.77800
C758        C  0.30783966  0.28397127  0.75898405     0.82900
N759        N  0.27860509  0.29681140  0.76219690    -0.77800
C760        C  0.25834537  0.28704309  0.78467350     0.83000
N761        N  0.26774105  0.26352414  0.80370275    -0.79500
C762        C  0.52916428  0.23702986  0.98569367     0.80500
N763        N  0.51676976  0.20802841  0.98836137    -0.77800
C764        C  0.50376218  0.19842529  0.01582027     0.82900
N765        N  0.50240356  0.21859371  0.04046791    -0.77800
C766        C  0.51493615  0.24792191  0.03854629     0.83000
N767        N  0.52806977  0.25693817  0.01083096    -0.79500
C768        C  0.48118019  0.49262054  0.72299704     0.80500
N769        N  0.47765820  0.51349323  0.74695159    -0.77800
C770        C  0.49038272  0.50750581  0.77554363     0.82900
N771        N  0.50615848  0.48056962  0.78041381    -0.77800
C772        C  0.50967303  0.45956911  0.75668098     0.83000
N773        N  0.49698288  0.46537919  0.72808986    -0.79500
C774        C  0.26231315  0.49058125  0.97096277     0.80500
N775        N  0.27962139  0.51751811  0.96990355    -0.77800
C776        C  0.31142270  0.51651107  0.97633222     0.82900
N777        N  0.32546400  0.48903746  0.98339725    -0.77800
C778        C  0.30855538  0.46216644  0.98424588     0.83000
N779        N  0.27707245  0.46341971  0.97807494    -0.79500
N780        N  0.43453577  0.61893076  0.91719655    -0.36300
N781        N  0.42747703  0.64987908  0.85843076    -0.56900
N782        N  0.38013828  0.69573565  0.88408418    -0.36300
N783        N  0.38556117  0.66407092  0.94260926    -0.56900
C784        C  0.44860195  0.59699046  0.89871791     0.27200
C785        C  0.42733026  0.60494764  0.94446102     0.27200
C786        C  0.39334849  0.71250108  0.86009721     0.27200
C787        C  0.36147083  0.71479566  0.90245530     0.27200
C788        C  0.44097783  0.62348008  0.84717230     0.35900
C789        C  0.42138263  0.66791242  0.83347826     0.35900
C790        C  0.39253727  0.64617356  0.96771040     0.35900
C791        C  0.36318221  0.68469524  0.95211762     0.35900
C792        C  0.45375574  0.57005443  0.91591763    -0.21600
C793        C  0.43967472  0.57489590  0.94467843    -0.21600
C794        C  0.38217013  0.74298088  0.86281021    -0.21600
C795        C  0.36159561  0.74423395  0.88883722    -0.21600
C796        C  0.44312662  0.62455867  0.81463533    -0.22700
C797        C  0.43101597  0.65281422  0.80599240    -0.22700
C798        C  0.37544681  0.65624202  0.99360275    -0.22700
C799        C  0.35720749  0.68068292  0.98396505    -0.22700
C800        C  0.45219572  0.59862136  0.86571758    -0.18000
C801        C  0.40316518  0.61519707  0.96493465    -0.18000
C802        C  0.34707946  0.70614757  0.93233476    -0.18000
C803        C  0.41417615  0.69994971  0.83575134    -0.18000
H804        H  0.46348936  0.54805992  0.90754843     0.14900
H805        H  0.43626918  0.55740709  0.96263452     0.14900
H806        H  0.38785607  0.76223378  0.84741790     0.14900
H807        H  0.34960684  0.76493416  0.89760695     0.14900
H808        H  0.45314658  0.60725276  0.79874911     0.13200
H809        H  0.43037890  0.66170964  0.78225045     0.13200
H810        H  0.37435691  0.64557840  0.01652841     0.13200
H811        H  0.34088543  0.69339567  0.99897304     0.13200
H812        H  0.42659744  0.64087994  0.91093240     0.26400
H813        H  0.38350738  0.67197308  0.88761447     0.26400
N814        N  0.60255759  0.33599745  0.85342792    -0.36300
N815        N  0.64454963  0.38477767  0.83406673    -0.56900
N816        N  0.69450046  0.36497795  0.87895375    -0.36300
N817        N  0.65137013  0.31302380  0.89517850    -0.56900
C818        C  0.58820809  0.34591055  0.82709414     0.27200
C819        C  0.59093789  0.30752194  0.85958289     0.27200
C820        C  0.71103492  0.38373665  0.85843649     0.27200
C821        C  0.71483888  0.34571181  0.89477450     0.27200
C822        C  0.61533413  0.39602977  0.82801151     0.35900
C823        C  0.66312855  0.40978469  0.83981653     0.35900
C824        C  0.62591514  0.29562708  0.90437296     0.35900
C825        C  0.67405642  0.30887142  0.91738007     0.35900
C826        C  0.56755128  0.32303544  0.81572695    -0.21600
C827        C  0.56889995  0.29870708  0.83684818    -0.21600
C828        C  0.74310010  0.37635159  0.86171159    -0.21600
C829        C  0.74549365  0.35297524  0.88475499    -0.21600
C830        C  0.61508266  0.42840344  0.82976365    -0.22700
C831        C  0.64557348  0.43720766  0.83770214    -0.22700
C832        C  0.63268695  0.28016519  0.93193648    -0.22700
C833        C  0.66319647  0.28764372  0.93953174    -0.22700
C834        C  0.59063606  0.37684602  0.81683338    -0.18000
C835        C  0.59695556  0.29208518  0.88764557    -0.18000
C836        C  0.70528925  0.32192839  0.91740219    -0.18000
C837        C  0.69634799  0.40750360  0.83851572    -0.18000
H838        H  0.55176280  0.32460283  0.79567080     0.14900
H839        H  0.55466524  0.27752287  0.83621913     0.14900
H840        H  0.76282250  0.38686301  0.84925760     0.14900
H841        H  0.76729241  0.34206866  0.89260830     0.14900
H842        H  0.59535347  0.44387058  0.82484732     0.13200
H843        H  0.65439623  0.46101096  0.83973641     0.13200
H844        H  0.61764687  0.26463025  0.94528049     0.13200
H845        H  0.67571020  0.27862772  0.95973087     0.13200
H846        H  0.61680694  0.34934507  0.86853388     0.26400
H847        H  0.67002992  0.36579490  0.88275943     0.26400
N848        N  0.37905509  0.39283232  0.63420574    -0.36300
N849        N  0.34767865  0.34430143  0.59514503    -0.56900
N850        N  0.35714360  0.38210004  0.53934471    -0.36300
N851        N  0.38969596  0.42795934  0.58086775    -0.56900
C852        C  0.38123285  0.36718771  0.65183674     0.27200
C853        C  0.40167995  0.41294964  0.64415964     0.27200
C854        C  0.34823213  0.35364486  0.52730794     0.27200
C855        C  0.37915188  0.39598006  0.52018549     0.27200
C856        C  0.33791649  0.33953315  0.62507911     0.35900
C857        C  0.32332116  0.33521957  0.57619862     0.35900
C858        C  0.39266752  0.45033414  0.60298939     0.35900
C859        C  0.38416305  0.44236948  0.55379348     0.35900
C860        C  0.40587871  0.37061466  0.67344408    -0.21600
C861        C  0.41886246  0.39996566  0.66862191    -0.21600
C862        C  0.36431353  0.34956765  0.49895164    -0.21600
C863        C  0.38413410  0.37589361  0.49477553    -0.21600
C864        C  0.30724880  0.32775066  0.62548399    -0.22700
C865        C  0.29767932  0.32564162  0.59462089    -0.22700
C866        C  0.38891089  0.47970549  0.59037906    -0.22700
C867        C  0.38299023  0.47467640  0.55894259    -0.22700
C868        C  0.35748195  0.34422230  0.65174863    -0.18000
C869        C  0.40449302  0.44338794  0.63255386    -0.18000
C870        C  0.39233979  0.42703334  0.52579396    -0.18000
C871        C  0.32616664  0.33249306  0.54280739    -0.18000
H872        H  0.41250775  0.35445881  0.69175715     0.14900
H873        H  0.43790225  0.41081511  0.68209486     0.14900
H874        H  0.36277255  0.32945426  0.48333427     0.14900
H875        H  0.39985065  0.37994925  0.47505422     0.14900
H876        H  0.29311868  0.32187777  0.64590065     0.13200
H877        H  0.27414233  0.31843500  0.58704799     0.13200
H878        H  0.39164441  0.50213068  0.60220488     0.13200
H879        H  0.38013846  0.49289280  0.54169637     0.13200
H880        H  0.36082211  0.39748182  0.61824349     0.26400
H881        H  0.34772625  0.39196175  0.55985199     0.26400
N882        N  0.38170627  0.35386659  0.09826861    -0.36300
N883        N  0.32746983  0.37902838  0.13677367    -0.56900
N884        N  0.36380992  0.36829100  0.19324323    -0.36300
N885        N  0.41400452  0.33961520  0.15244484    -0.56900
C886        C  0.35763981  0.35319314  0.07771498     0.27200
C887        C  0.40534525  0.33555794  0.08678564     0.27200
C888        C  0.33546195  0.37748969  0.20552123     0.27200
C889        C  0.37786309  0.34666173  0.21225450     0.27200
C890        C  0.32006713  0.38803726  0.10711968     0.35900
C891        C  0.31247168  0.39939062  0.15662402     0.35900
C892        C  0.43800053  0.34363617  0.13225628     0.35900
C893        C  0.42539058  0.34637048  0.18086571     0.35900
C894        C  0.36604217  0.33444539  0.05207735    -0.21600
C895        C  0.39621825  0.32276606  0.05813569    -0.21600
C896        C  0.33155910  0.36216205  0.23397845    -0.21600
C897        C  0.35783995  0.34208669  0.23778790    -0.21600
C898        C  0.29951279  0.41336831  0.10820750    -0.22700
C899        C  0.29480124  0.42058740  0.13936997    -0.22700
C900        C  0.46542511  0.35258906  0.14761036    -0.22700
C901        C  0.45741771  0.35459253  0.17898279    -0.22700
C902        C  0.33262977  0.37496684  0.07880642    -0.18000
C903        C  0.43528988  0.33303763  0.10152857    -0.18000
C904        C  0.40947293  0.33440218  0.20667390    -0.18000
C905        C  0.31387209  0.39876031  0.19014125    -0.18000
H906        H  0.35246864  0.33085267  0.03067350     0.14900
H907        H  0.41034950  0.30810836  0.04264594     0.14900
H908        H  0.31147535  0.36436400  0.24978715     0.14900
H909        H  0.36219601  0.32695640  0.25758037     0.14900
H910        H  0.28942908  0.42580584  0.08851702     0.13200
H911        H  0.28028525  0.43961832  0.14822246     0.13200
H912        H  0.48842174  0.35643807  0.13702251     0.13200
H913        H  0.47353099  0.35959730  0.19830042     0.13200
H914        H  0.38282167  0.36890279  0.11767586     0.26400
H915        H  0.37355985  0.37746364  0.17277045     0.26400
N916        N  0.37474478  0.13365357  0.91725686    -0.36300
N917        N  0.44132251  0.08242171  0.93032531    -0.56900
N918        N  0.38577109  0.04138455  0.87808791    -0.36300
N919        N  0.33825695  0.09178382  0.87372238    -0.56900
C920        C  0.39792897  0.14928741  0.93298524     0.27200
C921        C  0.35450933  0.15495080  0.90619307     0.27200
C922        C  0.40962917  0.02183328  0.88797264     0.27200
C923        C  0.36363807  0.02573980  0.86044366     0.27200
C924        C  0.43625030  0.11145653  0.92045378     0.35900
C925        C  0.44288304  0.06508678  0.90390200     0.35900
C926        C  0.32162773  0.11889284  0.87131404     0.35900
C927        C  0.32492844  0.07111406  0.85301497     0.35900
C928        C  0.39138420  0.18085765  0.93443944    -0.21600
C929        C  0.36389630  0.18460319  0.91695780    -0.21600
C930        C  0.40181344  0.99198521  0.87721399    -0.21600
C931        C  0.37346640  0.99455698  0.85936505    -0.21600
C932        C  0.43554333  0.11310574  0.88788637    -0.22700
C933        C  0.44056939  0.08327148  0.87717678    -0.22700
C934        C  0.29717262  0.11517687  0.84978271    -0.22700
C935        C  0.29933137  0.08548144  0.83809426    -0.22700
C936        C  0.42664103  0.13487667  0.94089008    -0.18000
C937        C  0.33082437  0.14878803  0.88335914    -0.18000
C938        C  0.33538702  0.03980286  0.84601978    -0.18000
C939        C  0.43778170  0.03309391  0.90515153    -0.18000
H940        H  0.40628679  0.19925781  0.94425167     0.14900
H941        H  0.35316529  0.20684463  0.91128398     0.14900
H942        H  0.41557260  0.97090881  0.88059593     0.14900
H943        H  0.36135439  0.97550994  0.84729830     0.14900
H944        H  0.43023468  0.13337663  0.87376752     0.13200
H945        H  0.43914160  0.07522540  0.85297299     0.13200
H946        H  0.28043712  0.13272091  0.84199720     0.13200
H947        H  0.28416122  0.07622022  0.81960344     0.13200
H948        H  0.37464282  0.10972137  0.91255893     0.26400
H949        H  0.38490821  0.06505166  0.88330980     0.26400
N950        N  0.14633760  0.40140195  0.87642844    -0.36300
N951        N  0.09440259  0.43303890  0.90750338    -0.56900
N952        N  0.04667585  0.40023066  0.86691009    -0.36300
N953        N  0.10034738  0.36644309  0.83884128    -0.56900
C954        C  0.16242190  0.41480712  0.90041190     0.27200
C955        C  0.16506075  0.37881373  0.86425442     0.27200
C956        C  0.02787754  0.41228052  0.89035903     0.27200
C957        C  0.03174578  0.37522603  0.85240671     0.27200
C958        C  0.11943739  0.44996449  0.91879196     0.35900
C959        C  0.06801828  0.44962256  0.91470462     0.35900
C960        C  0.12770162  0.36240817  0.82281892     0.35900
C961        C  0.07685226  0.36256447  0.81762280     0.35900
C962        C  0.19218461  0.40102038  0.90320736    -0.21600
C963        C  0.19371905  0.37791805  0.88042792    -0.21600
C964        C  0.99971587  0.39500732  0.89026171    -0.21600
C965        C  0.00223096  0.37171089  0.86675798    -0.21600
C966        C  0.10915904  0.47700260  0.93344254    -0.22700
C967        C  0.07688713  0.47690597  0.93096567    -0.22700
C968        C  0.12180295  0.35552147  0.79153960    -0.22700
C969        C  0.08950352  0.35686249  0.78789967    -0.22700
C970        C  0.15152558  0.44057958  0.91805956    -0.18000
C971        C  0.15765218  0.36137005  0.83707703    -0.18000
C972        C  0.04512557  0.35677900  0.82644143    -0.18000
C973        C  0.03610476  0.43878930  0.91081771    -0.18000
H974        H  0.21098480  0.40722099  0.91958818     0.14900
H975        H  0.21395509  0.36297680  0.87560844     0.14900
H976        H  0.97958484  0.39848970  0.90578549     0.14900
H977        H  0.98432944  0.35426501  0.86102689     0.14900
H978        H  0.12332849  0.49465100  0.94548864     0.13200
H979        H  0.06208912  0.49477754  0.94148470     0.13200
H980        H  0.13898888  0.34993596  0.77337288     0.13200
H981        H  0.07664224  0.35218247  0.76624237     0.13200
H982        H  0.12464925  0.40870841  0.86740808     0.26400
H983        H  0.06867268  0.40946531  0.86051374     0.26400
C984        C  0.74642313  0.80426202  0.24542708     0.80500
N985        N  0.72501959  0.79864056  0.26866162    -0.77800
C986        C  0.71975696  0.76888805  0.27818129     0.82900
N987        N  0.73568795  0.74486388  0.26453864    -0.77800
C988        C  0.75797107  0.75022271  0.24225584     0.83000
N989        N  0.76303871  0.77999425  0.23285593    -0.79500
N990        N  0.60463150  0.65939388  0.35645521    -0.36300
N991        N  0.57810414  0.60979755  0.39775407    -0.56900
N992        N  0.60034793  0.63903568  0.45396777    -0.36300
N993        N  0.63013544  0.68632625  0.41035102    -0.56900
C994        C  0.60317989  0.63424117  0.33763454     0.27200
C995        C  0.62735387  0.67838705  0.34509130     0.27200
C996        C  0.59188221  0.60991062  0.46409748     0.27200
C997        C  0.62686673  0.64972459  0.46951227     0.27200
C998        C  0.56360457  0.60747034  0.36958079     0.35900
C999        C  0.55709628  0.59888000  0.41899468     0.35900
C1000       C  0.62750115  0.71076984  0.39095938     0.35900
C1001       C  0.62803395  0.69769882  0.43956290     0.35900
C1002       C  0.62503341  0.63706383  0.31331191    -0.21600
C1003       C  0.64053935  0.66538873  0.31809084    -0.21600
C1004       C  0.61300730  0.60212772  0.48799726    -0.21600
C1005       C  0.63525326  0.62690802  0.49106278    -0.21600
C1006       C  0.53319570  0.59538524  0.37253966    -0.22700
C1007       C  0.52859002  0.59086802  0.40409583    -0.22700
C1008       C  0.62322172  0.73821810  0.40749846    -0.22700
C1009       C  0.62351012  0.72997088  0.43879976    -0.22700
C1010       C  0.58006320  0.61106039  0.34127284    -0.18000
C1011       C  0.63450971  0.70735004  0.35919682    -0.18000
C1012       C  0.64104413  0.68034636  0.46403062    -0.18000
C1013       C  0.56618306  0.59135417  0.45008970    -0.18000
H1014       H  0.62891004  0.62078375  0.29402087     0.14900
H1015       H  0.65909465  0.67522941  0.30349967     0.14900
H1016       H  0.61316288  0.58053065  0.50107912     0.14900
H1017       H  0.65499404  0.62802049  0.50743332     0.14900
H1018       H  0.51641523  0.59005636  0.35385944     0.13200
H1019       H  0.50698055  0.58182440  0.41455556     0.13200
H1020       H  0.62109539  0.76134923  0.39773469     0.13200
H1021       H  0.62225500  0.74596655  0.45866813     0.13200
H1022       H  0.58941283  0.66411081  0.37533659     0.26400
H1023       H  0.58796447  0.65154273  0.43694977     0.26400
C1024       C  0.75474999  0.49554080  0.02664824     0.80500
N1025       N  0.75360697  0.46424130  0.01987705    -0.77800
C1026       C  0.73128683  0.45285655  0.99940749     0.82900
N1027       N  0.71029337  0.47307565  0.98688624    -0.77800
C1028       C  0.71026914  0.50378397  0.99434124     0.83000
N1029       N  0.73272220  0.51511970  0.01426712    -0.79500
C1030       C  0.50381042  0.73569782  0.05870740     0.80500
N1031       N  0.50803577  0.71729033  0.03290377    -0.77800
C1032       C  0.53516024  0.71968994  0.01614128     0.82900
N1033       N  0.55797188  0.73992150  0.02591169    -0.77800
C1034       C  0.55454276  0.75805547  0.05183388     0.83000
N1035       N  0.52686737  0.75603927  0.06808984    -0.79500
C1036       C  0.54028560  0.49157368  0.20508132     0.80500
N1037       N  0.55447447  0.50892910  0.22786472    -0.77800
C1038       C  0.53653496  0.52656027  0.24737408     0.82900
N1039       N  0.50476849  0.52806293  0.24329769    -0.77800
C1040       C  0.49016182  0.51174501  0.22007787     0.83000
N1041       N  0.50818756  0.49310838  0.20133257    -0.79500
N1042       N  0.38785217  0.62522780  0.12699450    -0.36300
N1043       N  0.34031208  0.66668294  0.10605286    -0.56900
N1044       N  0.28881230  0.62594083  0.13172438    -0.36300
N1045       N  0.33915905  0.58141207  0.14847575    -0.56900
C1046       C  0.40476618  0.64550739  0.10971920     0.27200
C1047       C  0.40466250  0.59860997  0.12904931     0.27200
C1048       C  0.27326383  0.64245660  0.10905299     0.27200
C1049       C  0.27193415  0.59970794  0.13957108     0.27200
C1050       C  0.36476421  0.68642462  0.11161941     0.35900
C1051       C  0.31375954  0.68388027  0.10775231     0.35900
C1052       C  0.36626674  0.57406346  0.16379421     0.35900
C1053       C  0.31581141  0.57798389  0.16994590     0.35900
C1054       C  0.43286652  0.63136955  0.09985728    -0.21600
C1055       C  0.43290926  0.60155740  0.11246651    -0.21600
C1056       C  0.24494587  0.62659534  0.10265378    -0.21600
C1057       C  0.24391394  0.59999511  0.12210140    -0.21600
C1058       C  0.35394173  0.71651503  0.11717544    -0.22700
C1059       C  0.32137451  0.71504234  0.11407033    -0.22700
C1060       C  0.36015573  0.56583886  0.19459926    -0.22700
C1061       C  0.32843568  0.56963054  0.19874270    -0.22700
C1062       C  0.39642851  0.67736952  0.10719330    -0.18000
C1063       C  0.39663316  0.57493304  0.15024533    -0.18000
C1064       C  0.28323487  0.57684736  0.16214603    -0.18000
C1065       C  0.28458103  0.67215335  0.09672480    -0.18000
H1066       H  0.45194032  0.64191811  0.08645652     0.14900
H1067       H  0.45203131  0.58467134  0.11093444     0.14900
H1068       H  0.22665829  0.63369057  0.08627016     0.14900
H1069       H  0.22500771  0.58272302  0.12279459     0.14900
H1070       H  0.36808306  0.73738946  0.12145437     0.13200
H1071       H  0.30535688  0.73473496  0.11613911     0.13200
H1072       H  0.37663077  0.55848968  0.21260344     0.13200
H1073       H  0.31578302  0.56496355  0.22015282     0.13200
H1074       H  0.36749305  0.63062375  0.13991019     0.26400
H1075       H  0.31021922  0.63268736  0.14224660     0.26400
N1076       N  0.61146117  0.37893542  0.07814277    -0.36300
N1077       N  0.58637930  0.33966021  0.13374600    -0.56900
N1078       N  0.60297178  0.28216351  0.10577960    -0.36300
N1079       N  0.63100963  0.32313120  0.05483167    -0.56900
C1080       C  0.61253040  0.39893984  0.10246059     0.27200
C1081       C  0.63352834  0.38867518  0.05718183     0.27200
C1082       C  0.59412722  0.27283642  0.13502455     0.27200
C1083       C  0.63027103  0.26720566  0.09687914     0.27200
C1084       C  0.57665928  0.36957897  0.13857238     0.35900
C1085       C  0.56561053  0.32094022  0.14967479     0.35900
C1086       C  0.63351770  0.33999072  0.02855412     0.35900
C1087       C  0.63200299  0.29309916  0.04645618     0.35900
C1088       C  0.63382138  0.42307924  0.09637612    -0.21600
C1089       C  0.64721724  0.41655079  0.06754965    -0.21600
C1090       C  0.61555557  0.25011605  0.14465579    -0.21600
C1091       C  0.63876448  0.24712812  0.12095141    -0.21600
C1092       C  0.55009717  0.37009765  0.15760230    -0.22700
C1093       C  0.54271743  0.33971781  0.16401939    -0.22700
C1094       C  0.63584915  0.32057412  0.00271383    -0.22700
C1095       C  0.63446190  0.29049697  0.01402263    -0.22700
C1096       C  0.59273615  0.39694376  0.12867692    -0.18000
C1097       C  0.64287684  0.37122244  0.03042200    -0.18000
C1098       C  0.64612713  0.27261582  0.06725815    -0.18000
C1099       C  0.56933347  0.28769426  0.15337466    -0.18000
H1100       H  0.63937779  0.44302527  0.11134594     0.14900
H1101       H  0.66550061  0.43023675  0.05606901     0.14900
H1102       H  0.61576150  0.23851940  0.16716820     0.14900
H1103       H  0.65939145  0.23201264  0.12148089     0.14900
H1104       H  0.53693341  0.39036016  0.16578199     0.13200
H1105       H  0.52211623  0.33345385  0.17753493     0.13200
H1106       H  0.64069171  0.32757731  0.97898734     0.13200
H1107       H  0.63910550  0.26920817  0.00085136     0.13200
H1108       H  0.59600292  0.35981541  0.07643337     0.26400
H1109       H  0.59073345  0.29863750  0.09248082     0.26400
N1110       N  0.59749417  0.60443231  0.89451060    -0.36300
N1111       N  0.63562967  0.57007905  0.84952726    -0.56900
N1112       N  0.62276436  0.61798456  0.80183447    -0.36300
N1113       N  0.58206797  0.64989074  0.84958498    -0.56900
C1114       C  0.60200685  0.57765764  0.90996225     0.27200
C1115       C  0.57364080  0.61976025  0.90900734     0.27200
C1116       C  0.63510188  0.59415794  0.78411861     0.27200
C1117       C  0.60255094  0.63552865  0.78393386     0.27200
C1118       C  0.64559415  0.55730844  0.87682455     0.35900
C1119       C  0.65846040  0.56351079  0.82811285     0.35900
C1120       C  0.57702941  0.66608381  0.87636265     0.35900
C1121       C  0.58864415  0.67082988  0.82738265     0.35900
C1122       C  0.58034432  0.57544956  0.93450533    -0.21600
C1123       C  0.56196140  0.60206724  0.93360767    -0.21600
C1124       C  0.62332693  0.59707742  0.75376520    -0.21600
C1125       C  0.60249619  0.62272160  0.75375096    -0.21600
C1126       C  0.67431437  0.54198883  0.87259524    -0.22700
C1127       C  0.68251838  0.54593043  0.84180899    -0.22700
C1128       C  0.58036745  0.69788243  0.87150798    -0.22700
C1129       C  0.58797614  0.70092348  0.84019053    -0.22700
C1130       C  0.62916976  0.55927010  0.90572149    -0.18000
C1131       C  0.56744818  0.65156402  0.90411203    -0.18000
C1132       C  0.58552294  0.66283872  0.79546955    -0.18000
C1133       C  0.65649140  0.57042842  0.79571873    -0.18000
H1134       H  0.57918219  0.55769404  0.95240351     0.14900
H1135       H  0.54394212  0.60881991  0.95055488     0.14900
H1136       H  0.62852734  0.58189089  0.73390254     0.14900
H1137       H  0.58919549  0.63097809  0.73370182     0.14900
H1138       H  0.68794325  0.52925977  0.88987538     0.13200
H1139       H  0.70377699  0.53668600  0.83075124     0.13200
H1140       H  0.57682466  0.71670678  0.88838003     0.13200
H1141       H  0.59057941  0.72269263  0.82769319     0.13200
H1142       H  0.61306653  0.61366967  0.87798596     0.26400
H1143       H  0.62855141  0.62240621  0.82528831     0.26400
N1144       N  0.83940601  0.60384009  0.15325506    -0.36300
N1145       N  0.88944002  0.57996813  0.11498952    -0.56900
N1146       N  0.93829595  0.62485356  0.13961180    -0.36300
N1147       N  0.88651651  0.65250647  0.17522539    -0.56900
C1148       C  0.82279990  0.58706982  0.13165432     0.27200
C1149       C  0.82035781  0.62691363  0.16371755     0.27200
C1150       C  0.95174963  0.61471954  0.11185316     0.27200
C1151       C  0.95189170  0.65260309  0.14959420     0.27200
C1152       C  0.86817397  0.55618703  0.11427977     0.35900
C1153       C  0.91735040  0.56765534  0.10592069     0.35900
C1154       C  0.86161891  0.65371616  0.19543675     0.35900
C1155       C  0.91220100  0.66320069  0.19150689     0.35900
C1156       C  0.79222667  0.59893690  0.12907945    -0.21600
C1157       C  0.79062390  0.62424793  0.14958860    -0.21600
C1158       C  0.97527346  0.63637596  0.10427672    -0.21600
C1159       C  0.97556516  0.65981565  0.12792824    -0.21600
C1160       C  0.88245340  0.52852437  0.10495470    -0.22700
C1161       C  0.91386577  0.53571396  0.10022322    -0.22700
C1162       C  0.87132504  0.66519953  0.22441935    -0.22700
C1163       C  0.90341089  0.67013988  0.22231128    -0.22700
C1164       C  0.83533093  0.56135811  0.11484652    -0.18000
C1165       C  0.82960489  0.64929418  0.18644468    -0.18000
C1166       C  0.94212010  0.67061530  0.17762687    -0.18000
C1167       C  0.94259124  0.58611158  0.09458917    -0.18000
H1168       H  0.77325762  0.59040763  0.11395684     0.14900
H1169       H  0.77009478  0.63905301  0.15349544     0.14900
H1170       H  0.99065798  0.63548724  0.08387515     0.14900
H1171       H  0.99097724  0.68018009  0.12857311     0.14900
H1172       H  0.87104854  0.50615635  0.10032382     0.13200
H1173       H  0.93165401  0.52007818  0.09072785     0.13200
H1174       H  0.85694119  0.66965615  0.24504833     0.13200
H1175       H  0.91828860  0.67847115  0.24142925     0.13200
H1176       H  0.86248708  0.59954499  0.16114697     0.26400
H1177       H  0.92064775  0.61280633  0.15175144     0.26400
N1178       N  0.69614239  0.87426861  0.10739055    -0.36300
N1179       N  0.71076086  0.93263436  0.13787520    -0.56900
N1180       N  0.65119096  0.96313951  0.11921151    -0.36300
N1181       N  0.63368211  0.90430219  0.09069173    -0.56900
C1182       C  0.72004368  0.86526278  0.12671466     0.27200
C1183       C  0.67783452  0.84872390  0.10214621     0.27200
C1184       C  0.65945042  0.98055779  0.14531556     0.27200
C1185       C  0.62102962  0.97026250  0.10946835     0.27200
C1186       C  0.73889923  0.91800644  0.14008196     0.35900
C1187       C  0.71528463  0.96235557  0.14692674     0.35900
C1188       C  0.63045443  0.87515960  0.07822106     0.35900
C1189       C  0.61059950  0.92188870  0.07721690     0.35900
C1190       C  0.71821891  0.83321495  0.13150416    -0.21600
C1191       C  0.69159674  0.82273180  0.11584640    -0.21600
C1192       C  0.63380502  0.99997279  0.15208158    -0.21600
C1193       C  0.61031008  0.99437784  0.12894118    -0.21600
C1194       C  0.76214267  0.93881131  0.15019838    -0.22700
C1195       C  0.74747146  0.96729332  0.15342838    -0.22700
C1196       C  0.60490052  0.87408373  0.05753537    -0.22700
C1197       C  0.59266891  0.90346871  0.05657741    -0.22700
C1198       C  0.73992770  0.88571681  0.14445519    -0.18000
C1199       C  0.64813550  0.84842030  0.08677209    -0.18000
C1200       C  0.60357745  0.95372471  0.08451789    -0.18000
C1201       C  0.69035358  0.97922740  0.16112794    -0.18000
H1202       H  0.73337068  0.81927794  0.14643691     0.14900
H1203       H  0.68241029  0.79901559  0.11608944     0.14900
H1204       H  0.63253042  0.01716377  0.17091938     0.14900
H1205       H  0.58765004  0.00618998  0.12731652     0.14900
H1206       H  0.78623448  0.93357427  0.15735036     0.13200
H1207       H  0.75816190  0.98801667  0.16396888     0.13200
H1208       H  0.59585459  0.85418877  0.04429952     0.13200
H1209       H  0.57204071  0.90999847  0.04286680     0.13200
H1210       H  0.69118136  0.89673569  0.09966076     0.26400
H1211       H  0.66581187  0.94713657  0.10779609     0.26400
O1212       O  0.69878572  0.46451126  0.67806652    -0.78200
C1213       C  0.76233098  0.54893266  0.68063125     0.82800
O1214       O  0.79456632  0.42766798  0.74730947    -0.79300
O1215       O  0.78472440  0.53325064  0.78591983    -0.80800
O1216       O  0.66847907  0.52036649  0.77279102    -0.80600
O1217       O  0.66246570  0.46371657  0.71607742    -0.79300
Zn1218     Zn  0.74182990  0.47935156  0.70006324     1.55700
O1219       O  0.70536756  0.55804942  0.76893499    -0.80600
Cd1220     Cd  0.69035681  0.47818366  0.75674842     1.59700
Cd1221     Cd  0.76614417  0.45853457  0.77504448     1.59600
O1222       O  0.69241246  0.44387807  0.79448209    -0.80600
O1223       O  0.73648071  0.48725178  0.74575214    -1.91100
Cd1224     Cd  0.74639428  0.53389921  0.75202511     1.59900
O1225       O  0.74146067  0.43085912  0.80918794    -0.80600
O1226       O  0.76113788  0.55858759  0.70937780    -0.79300
C1227       C  0.79641383  0.42651960  0.71733214     0.83300
C1228       C  0.66977647  0.46031882  0.68683809     0.82900
O1229       O  0.75475396  0.52025968  0.67443494    -0.78200
C1230       C  0.67698857  0.54918061  0.77577698     0.83800
O1231       O  0.77850157  0.44461091  0.70043071    -0.78300
C1232       C  0.71135615  0.42843564  0.81287839     0.83900
C1233       C  0.80357836  0.51505596  0.80148727     0.84200
O1234       O  0.79971438  0.48542210  0.80100395    -0.80700
O1235       O  0.07205419  0.02132484  0.49638277    -0.78200
C1236       C  0.05415812  0.96563684  0.57998277     0.82800
O1237       O  0.99394242  0.93477379  0.45609110    -0.79300
O1238       O  0.94362864  0.95816446  0.55809882    -0.80800
O1239       O  0.98298698  0.06980271  0.54569297    -0.80600
O1240       O  0.03946781  0.06125876  0.48775406    -0.79300
Zn1241     Zn  0.04356914  0.98309389  0.50964683     1.55700
O1242       O  0.97599357  0.03407972  0.58291982    -0.80600
Cd1243     Cd  0.99564056  0.04205623  0.50488875     1.59700
Cd1244     Cd  0.96864127  0.96836653  0.48391047     1.59600
O1245       O  0.95748280  0.04402790  0.47127790    -0.80600
O1246       O  0.99854578  0.99539643  0.51456025    -1.91100
Cd1247     Cd  0.98562413  0.98933229  0.56025376     1.59900
O1248       O  0.93881502  0.99712631  0.45585610    -0.80600
O1249       O  0.02485258  0.97119313  0.58678344    -0.79300
C1250       C  0.02348883  0.92805469  0.45847464     0.83300
C1251       C  0.06752392  0.04947929  0.48707059     0.82900
O1252       O  0.06422764  0.96892968  0.55179905    -0.78200
C1253       C  0.97570066  0.06289356  0.57414676     0.83800
O1254       O  0.04190108  0.94480568  0.47662802    -0.78300
C1255       C  0.93687469  0.02698152  0.45607198     0.83900
C1256       C  0.92656643  0.94226148  0.53784501     0.84200
O1257       O  0.93409167  0.94190585  0.50875776    -0.80700
C1258       C  0.52667720  0.00344872  0.77720719     0.80500
N1259       N  0.50285832  0.02455161  0.77450363    -0.77800
C1260       C  0.47809084  0.01921361  0.75495625     0.82900
N1261       N  0.47740491  0.99265864  0.73736408    -0.77800
C1262       C  0.50115296  0.97156162  0.73960403     0.83000
N1263       N  0.52588055  0.97699717  0.75950835    -0.79500
C1264       C  0.72650371  0.05793784  0.54235084     0.80500
N1265       N  0.70474332  0.07668331  0.52864784    -0.77800
C1266       C  0.67666210  0.06471709  0.51835800     0.82900
N1267       N  0.67096117  0.03354640  0.52192817    -0.77800
C1268       C  0.69285601  0.01456951  0.53546507     0.83000
N1269       N  0.72047683  0.02725521  0.54552788    -0.79500
C1270       C  0.51048403  0.25687485  0.48582353     0.80500
N1271       N  0.50265175  0.23662642  0.50882480    -0.77800
C1272       C  0.48012980  0.21448215  0.50369818     0.82900
N1273       N  0.46601549  0.21238241  0.47513927    -0.77800
C1274       C  0.47402825  0.23212500  0.45156963     0.83000
N1275       N  0.49628032  0.25464671  0.45727878    -0.79500
N1276       N  0.55853707  0.12177509  0.38792632    -0.36300
N1277       N  0.53921301  0.13472147  0.32807567    -0.56900
N1278       N  0.59824197  0.10985448  0.29634222    -0.36300
N1279       N  0.62015941  0.09680200  0.35776900    -0.56900
C1280       C  0.53586685  0.14356252  0.39372339     0.27200
C1281       C  0.58031409  0.12434883  0.41086953     0.27200
C1282       C  0.58889256  0.13438964  0.27798684     0.27200
C1283       C  0.62980609  0.10338276  0.29146060     0.27200
C1284       C  0.51108304  0.13856771  0.34262533     0.35900
C1285       C  0.53366491  0.13425669  0.29720148     0.35900
C1286       C  0.62011113  0.08751199  0.38813521     0.35900
C1287       C  0.63894700  0.07632873  0.34148037     0.35900
C1288       C  0.54282118  0.15942928  0.42155389    -0.21600
C1289       C  0.57102533  0.14712208  0.43250644    -0.21600
C1290       C  0.61518626  0.14359619  0.26052095    -0.21600
C1291       C  0.64061585  0.12375280  0.26843788    -0.21600
C1292       C  0.48678234  0.13989932  0.32099015    -0.22700
C1293       C  0.50090946  0.13647634  0.29194997    -0.22700
C1294       C  0.63870035  0.06112707  0.39139139    -0.22700
C1295       C  0.64998972  0.05357300  0.36198481    -0.22700
C1296       C  0.50983125  0.14953408  0.37360475    -0.18000
C1297       C  0.60677082  0.10461233  0.41359467    -0.18000
C1298       C  0.64826792  0.08070122  0.30933493    -0.18000
C1299       C  0.55681661  0.14720728  0.27749768    -0.18000
H1300       H  0.52924618  0.17801112  0.43264291     0.14900
H1301       H  0.58333017  0.15413821  0.45384783     0.14900
H1302       H  0.61599839  0.16244870  0.24372607     0.14900
H1303       H  0.66466148  0.12535464  0.25942162     0.14900
H1304       H  0.46237482  0.14600342  0.32576090     0.13200
H1305       H  0.48924941  0.14031495  0.26959064     0.13200
H1306       H  0.64352500  0.04851317  0.41282902     0.13200
H1307       H  0.66435848  0.03322550  0.35714720     0.13200
H1308       H  0.55913381  0.10506430  0.36987207     0.26400
H1309       H  0.58348756  0.09764660  0.31172807     0.26400
N1310       N  0.39507483  0.12904507  0.64401077    -0.36300
N1311       N  0.34260633  0.10983804  0.68095989    -0.56900
N1312       N  0.29580316  0.13142911  0.63538941    -0.36300
N1313       N  0.34975579  0.14849860  0.59549917    -0.56900
C1314       C  0.40915703  0.11082815  0.66562541     0.27200
C1315       C  0.41397101  0.12904469  0.61851297     0.27200
C1316       C  0.27882412  0.10855569  0.65083117     0.27200
C1317       C  0.28074393  0.13987289  0.60820004     0.27200
C1318       C  0.36525468  0.11239751  0.70309816     0.35900
C1319       C  0.31486810  0.10730710  0.69611946     0.35900
C1320       C  0.37793615  0.15865555  0.58368627     0.35900
C1321       C  0.32693478  0.16587038  0.58147145     0.35900
C1322       C  0.43766572  0.09928639  0.65380293    -0.21600
C1323       C  0.44094497  0.11131096  0.62402210    -0.21600
C1324       C  0.25172340  0.10262025  0.63285599    -0.21600
C1325       C  0.25255766  0.12268263  0.60666870    -0.21600
C1326       C  0.35197510  0.11201624  0.73290416    -0.22700
C1327       C  0.31970588  0.10883636  0.72846188    -0.22700
C1328       C  0.37294774  0.18174905  0.56162795    -0.22700
C1329       C  0.34096429  0.18668825  0.56057509    -0.22700
C1330       C  0.39688479  0.10564541  0.69595748    -0.18000
C1331       C  0.40836287  0.14711146  0.59183876    -0.18000
C1332       C  0.29349664  0.16177767  0.58502834    -0.18000
C1333       C  0.28805717  0.09475944  0.68103557    -0.18000
H1334       H  0.45453840  0.08422773  0.66549131     0.14900
H1335       H  0.46085443  0.10753092  0.60828791     0.14900
H1336       H  0.23302220  0.08599724  0.63817681     0.14900
H1337       H  0.23503064  0.12349531  0.58801192     0.14900
H1338       H  0.36443504  0.11115881  0.75519089     0.13200
H1339       H  0.30214766  0.10522632  0.74673767     0.13200
H1340       H  0.39045972  0.19403591  0.54769468     0.13200
H1341       H  0.32949703  0.20349130  0.54545551     0.13200
H1342       H  0.37453259  0.14231984  0.64709105     0.26400
H1343       H  0.31688297  0.14176985  0.64315918     0.26400
C1344       C  0.72609320  0.23815640  0.76210343     0.80500
N1345       N  0.75179153  0.24063846  0.74319769    -0.77800
C1346       C  0.74890857  0.25140715  0.71360606     0.82900
N1347       N  0.71999725  0.26007323  0.70296114    -0.77800
C1348       C  0.69379056  0.25791179  0.72152228     0.83000
N1349       N  0.69685385  0.24647129  0.75105158    -0.79500
N1350       N  0.59923649  0.34938170  0.60580149    -0.36300
N1351       N  0.58715351  0.40078447  0.56815387    -0.56900
N1352       N  0.61474289  0.44460831  0.61446898    -0.36300
N1353       N  0.62386528  0.39109308  0.65539206    -0.56900
C1354       C  0.58098500  0.33703602  0.58274222     0.27200
C1355       C  0.59389201  0.33258045  0.63179816     0.27200
C1356       C  0.59329254  0.46349988  0.59923963     0.27200
C1357       C  0.62520966  0.45844135  0.64172860     0.27200
C1358       C  0.58957456  0.37873074  0.54553595     0.35900
C1359       C  0.58862776  0.42842422  0.55385595     0.35900
C1360       C  0.63109294  0.36202036  0.66568898     0.35900
C1361       C  0.64646463  0.41058919  0.66735825     0.35900
C1362       C  0.56355023  0.31193878  0.59412678    -0.21600
C1363       C  0.57171168  0.30916536  0.62544375    -0.21600
C1364       C  0.59037901  0.49057136  0.61742864    -0.21600
C1365       C  0.61081426  0.48768249  0.64365002    -0.21600
C1366       C  0.59274635  0.39231045  0.51627340    -0.22700
C1367       C  0.59208656  0.42417373  0.52167183    -0.22700
C1368       C  0.65805303  0.36306260  0.68448711    -0.22700
C1369       C  0.66787538  0.39368668  0.68543965    -0.22700
C1370       C  0.58164128  0.34758350  0.55155089    -0.18000
C1371       C  0.61345218  0.33454267  0.65840972    -0.18000
C1372       C  0.64655635  0.44369503  0.66432046    -0.18000
C1373       C  0.57836130  0.45579586  0.56892280    -0.18000
H1374       H  0.54733713  0.29686118  0.58111783     0.14900
H1375       H  0.56371537  0.29104776  0.64124346     0.14900
H1376       H  0.57555806  0.51053920  0.61221976     0.14900
H1377       H  0.61369957  0.50467159  0.66251239     0.14900
H1378       H  0.59320253  0.38058479  0.49357855     0.13200
H1379       H  0.59226602  0.44233148  0.50416134     0.13200
H1380       H  0.66973465  0.34377188  0.69604015     0.13200
H1381       H  0.68832393  0.40245367  0.69837983     0.13200
H1382       H  0.61677168  0.36649321  0.60305483     0.26400
H1383       H  0.62287974  0.42297059  0.60647857     0.26400
N1384       N  0.60142132  0.88695571  0.62024972    -0.36300
N1385       N  0.64986403  0.84518636  0.59461083    -0.56900
N1386       N  0.61701085  0.78996855  0.61940992    -0.36300
N1387       N  0.57124304  0.83402633  0.64623588    -0.56900
C1388       C  0.62530740  0.90692371  0.61442440     0.27200
C1389       C  0.58330413  0.90018610  0.64278470     0.27200
C1390       C  0.64531090  0.77739386  0.60998486     0.27200
C1391       C  0.60410464  0.77281376  0.64337857     0.27200
C1392       C  0.65594392  0.87234389  0.57949213     0.35900
C1393       C  0.66370441  0.82243790  0.57710097     0.35900
C1394       C  0.54803771  0.85549681  0.64822034     0.35900
C1395       C  0.55688474  0.80610255  0.64833570     0.35900
C1396       C  0.62239431  0.93363017  0.63294973    -0.21600
C1397       C  0.59589454  0.92911078  0.65149299    -0.21600
C1398       C  0.65025602  0.75066188  0.62772106    -0.21600
C1399       C  0.62475372  0.74815235  0.64910190    -0.21600
C1400       C  0.67383996  0.86717881  0.55280083    -0.22700
C1401       C  0.67873079  0.83579963  0.55113574    -0.22700
C1402       C  0.51866416  0.84145946  0.65178369    -0.22700
C1403       C  0.52407932  0.80986915  0.65100415    -0.22700
C1404       C  0.64745941  0.90220721  0.59054619    -0.18000
C1405       C  0.55465391  0.88706102  0.65345545    -0.18000
C1406       C  0.57373988  0.77982787  0.65841149    -0.18000
C1407       C  0.66552368  0.79032334  0.58554893    -0.18000
H1408       H  0.63763312  0.95413756  0.63293000     0.14900
H1409       H  0.58654510  0.94552029  0.66869221     0.14900
H1410       H  0.67049348  0.73509409  0.62609459     0.14900
H1411       H  0.62164571  0.73002929  0.66644264     0.14900
H1412       H  0.68295259  0.88428287  0.53644683     0.13200
H1413       H  0.69271193  0.82478923  0.53286395     0.13200
H1414       H  0.49646291  0.85303374  0.65693696     0.13200
H1415       H  0.50659888  0.79181115  0.65567818     0.13200
H1416       H  0.59661405  0.86639217  0.60767903     0.26400
H1417       H  0.60652933  0.80927864  0.60893317     0.26400
N1418       N  0.86019195  0.15640680  0.60676262    -0.36300
N1419       N  0.90304334  0.10747381  0.58790313    -0.56900
N1420       N  0.95088905  0.13043379  0.63338730    -0.36300
N1421       N  0.90567857  0.18186997  0.65021868    -0.56900
C1422       C  0.84375136  0.14353789  0.58282757     0.27200
C1423       C  0.84643776  0.18400700  0.61365702     0.27200
C1424       C  0.96909949  0.11200169  0.61383759     0.27200
C1425       C  0.96976558  0.15135825  0.64951456     0.27200
C1426       C  0.87486910  0.09494251  0.57855355     0.35900
C1427       C  0.92379918  0.08349080  0.58872062     0.35900
C1428       C  0.87848152  0.19522392  0.66078181     0.35900
C1429       C  0.92580166  0.18178280  0.67488402     0.35900
C1430       C  0.81946261  0.16350404  0.57376883    -0.21600
C1431       C  0.82148087  0.18944972  0.59307708    -0.21600
C1432       C  0.00063279  0.12113530  0.61812645    -0.21600
C1433       C  0.00105568  0.14569120  0.64046605    -0.21600
C1434       C  0.87776111  0.06316785  0.57297118    -0.22700
C1435       C  0.90875811  0.05602984  0.57934456    -0.22700
C1436       C  0.88138593  0.20408085  0.69202964    -0.22700
C1437       C  0.91140092  0.19568287  0.70099678    -0.22700
C1438       C  0.84680300  0.11210410  0.57376326    -0.18000
C1439       C  0.85116696  0.19985456  0.64227678    -0.18000
C1440       C  0.95837192  0.17416185  0.67263504    -0.18000
C1441       C  0.95688661  0.08673312  0.59376449    -0.18000
H1442       H  0.80092627  0.15905813  0.55659461     0.14900
H1443       H  0.80472239  0.20865426  0.59388909     0.14900
H1444       H  0.02121777  0.11111026  0.60654178     0.14900
H1445       H  0.02202609  0.15790394  0.64903287     0.14900
H1446       H  0.85962255  0.04696686  0.56471277     0.13200
H1447       H  0.91930077  0.03326218  0.57704860     0.13200
H1448       H  0.86381038  0.21547431  0.70679625     0.13200
H1449       H  0.92154974  0.19980056  0.72408200     0.13200
H1450       H  0.87655916  0.14469943  0.62061157     0.26400
H1451       H  0.92642877  0.12815745  0.63660634     0.26400
N1452       N  0.66680508  0.09919416  0.85529242    -0.36300
N1453       N  0.69152830  0.13672254  0.90654907    -0.56900
N1454       N  0.65884522  0.10204507  0.95510131    -0.36300
N1455       N  0.63382689  0.06484238  0.90329743    -0.56900
C1456       C  0.67323395  0.12659622  0.84145635     0.27200
C1457       C  0.64290024  0.08557150  0.83921188     0.27200
C1458       C  0.66745585  0.12913270  0.97036971     0.27200
C1459       C  0.63169452  0.08979460  0.96794078     0.27200
C1460       C  0.71009865  0.14383232  0.88191056     0.35900
C1461       C  0.70916294  0.14248424  0.93227117     0.35900
C1462       C  0.63381138  0.04538398  0.87813848     0.35900
C1463       C  0.62682174  0.04728569  0.92845772     0.35900
C1464       C  0.65371781  0.13037115  0.81543565    -0.21600
C1465       C  0.63424034  0.10412439  0.81403032    -0.21600
C1466       C  0.64568619  0.13385462  0.99456051    -0.21600
C1467       C  0.62342725  0.10908373  0.99314373    -0.21600
C1468       C  0.73976051  0.15409814  0.89158964    -0.22700
C1469       C  0.73975544  0.15190022  0.92368841    -0.22700
C1470       C  0.62740054  0.01505672  0.88709976    -0.22700
C1471       C  0.62321954  0.01608237  0.91904075    -0.22700
C1472       C  0.69759926  0.14666013  0.85182100    -0.18000
C1473       C  0.62980037  0.05666757  0.84763436    -0.18000
C1474       C  0.61633050  0.06098989  0.95704090    -0.18000
C1475       C  0.69466581  0.14836791  0.96151601    -0.18000
H1476       H  0.65352797  0.14987985  0.79938163     0.14900
H1477       H  0.61586115  0.09934135  0.79673905     0.14900
H1478       H  0.64571619  0.15300845  0.01142627     0.14900
H1479       H  0.60381687  0.10547165  0.00916350     0.14900
H1480       H  0.75871286  0.16340699  0.87713806     0.13200
H1481       H  0.75894102  0.15943126  0.93909313     0.13200
H1482       H  0.62392155  0.99482567  0.87190018     0.13200
H1483       H  0.61707285  0.99596442  0.93296185     0.13200
H1484       H  0.67888717  0.08965179  0.87437355     0.26400
H1485       H  0.67174423  0.09184110  0.93678855     0.26400
C1486       C  0.99831825  0.70845376  0.51581654     0.80500
N1487       N  0.01250924  0.72407057  0.54003050    -0.77800
C1488       C  0.04006095  0.74006091  0.53556004     0.82900
N1489       N  0.05314221  0.73973437  0.50645062    -0.77800
C1490       C  0.03963373  0.72394540  0.48203379     0.83000
N1491       N  0.01191534  0.70836057  0.48690423    -0.79500
N1492       N  0.17527253  0.66555466  0.37477554    -0.36300
N1493       N  0.12206957  0.68240144  0.33251040    -0.56900
N1494       N  0.13495501  0.63622794  0.28335510    -0.36300
N1495       N  0.18390540  0.61578130  0.32729003    -0.56900
C1496       C  0.15425658  0.67907927  0.39452180     0.27200
C1497       C  0.18955661  0.64248695  0.39078304     0.27200
C1498       C  0.10530668  0.64648883  0.27491716     0.27200
C1499       C  0.13972891  0.60594231  0.27345784     0.27200
C1500       C  0.12624615  0.70627016  0.35324644     0.35900
C1501       C  0.10876204  0.69509657  0.30676507     0.35900
C1502       C  0.21102281  0.61712608  0.34427948     0.35900
C1503       C  0.19157766  0.60168359  0.29995897     0.35900
C1504       C  0.15656824  0.66590146  0.42410936    -0.21600
C1505       C  0.17897019  0.64249330  0.42166214    -0.21600
C1506       C  0.09094475  0.62223242  0.25797547    -0.21600
C1507       C  0.11242177  0.59681692  0.25715176    -0.21600
C1508       C  0.11548263  0.73389584  0.34102497    -0.22700
C1509       C  0.10573903  0.72722121  0.31099504    -0.22700
C1510       C  0.23604720  0.60396304  0.32777413    -0.22700
C1511       C  0.22384255  0.59509450  0.29923729    -0.51500
C1512       C  0.13182675  0.70138796  0.38515667    -0.18000
C1513       C  0.21006053  0.62048248  0.37685061    -0.18000
C1514       C  0.16868605  0.58809640  0.27979759    -0.18000
C1515       C  0.09257287  0.67725587  0.28347393    -0.18000
H1516       H  0.14244918  0.67141789  0.44472040     0.14900
H1517       H  0.18514613  0.62612475  0.43985113     0.14900
H1518       H  0.06734766  0.62253719  0.24777608     0.14900
H1519       H  0.10817056  0.57422246  0.24614455     0.14900
H1520       H  0.11319277  0.75590570  0.35331178     0.13200
H1521       H  0.09496198  0.74350623  0.29492343     0.13200
H1522       H  0.25988001  0.59926510  0.33614091     0.13200
H1523       H  0.23627849  0.58266296  0.28086975     0.13200
H1524       H  0.17871798  0.67089455  0.35110309     0.26400
H1525       H  0.15177813  0.64992788  0.29517889     0.26400
C1526       C  0.26702133  0.74908181  0.74264471     0.80500
N1527       N  0.26100844  0.72427828  0.76127059    -0.77800
C1528       C  0.24011974  0.72655023  0.78520160     0.82900
N1529       N  0.22571820  0.75428635  0.79132683    -0.77800
C1530       C  0.23187784  0.77973810  0.77357052     0.83000
N1531       N  0.25207174  0.77669209  0.74855335    -0.79500
C1532       C  0.23134699  0.50617970  0.51016318     0.80500
N1533       N  0.24326494  0.53040535  0.52776400    -0.77800
C1534       C  0.25452938  0.55631653  0.51327909     0.82900
N1535       N  0.25406687  0.55714286  0.48176864    -0.77800
C1536       C  0.24183630  0.53381038  0.46401560     0.83000
N1537       N  0.22997175  0.50805451  0.47822884    -0.79500
N1538       N  0.35777518  0.68047239  0.59346255    -0.36300
N1539       N  0.39838301  0.68006854  0.64702220    -0.56900
N1540       N  0.43857742  0.62636552  0.61780989    -0.36300
N1541       N  0.39663250  0.62844235  0.56441420    -0.56900
C1542       C  0.34159909  0.70120295  0.61154512     0.27200
C1543       C  0.33969020  0.67415423  0.56821619     0.27200
C1544       C  0.45789930  0.63888333  0.64100674     0.27200
C1545       C  0.45578647  0.60813485  0.59702806     0.27200
C1546       C  0.37099606  0.68987540  0.66015406     0.35900
C1547       C  0.41401685  0.66416423  0.66920835     0.35900
C1548       C  0.37449316  0.63469538  0.54218383     0.35900
C1549       C  0.41778006  0.60839115  0.55126443     0.35900
C1550       C  0.31419486  0.71040755  0.59594841    -0.21600
C1551       C  0.31246609  0.69243485  0.56897589    -0.21600
C1552       C  0.48838414  0.62762705  0.63528450    -0.21600
C1553       C  0.48693600  0.60797062  0.60840412    -0.21600
C1554       C  0.36963636  0.68119105  0.69147713    -0.22700
C1555       C  0.39686079  0.66444417  0.69711771    -0.22700
C1556       C  0.38162387  0.61922681  0.51452847    -0.22700
C1557       C  0.40952792  0.60361141  0.51972596    -0.22700
C1558       C  0.34722869  0.70632839  0.64392781    -0.18000
C1559       C  0.34465102  0.64854099  0.54796343    -0.18000
C1560       C  0.44387735  0.59392819  0.56736660    -0.18000
C1561       C  0.44680539  0.65915972  0.66694827    -0.18000
H1562       H  0.29558303  0.72562603  0.60476222     0.14900
H1563       H  0.29253401  0.69163781  0.55286251     0.14900
H1564       H  0.50945047  0.63254481  0.64919059     0.14900
H1565       H  0.50702960  0.59615685  0.59775189     0.14900
H1566       H  0.35104392  0.68624505  0.70839831     0.13200
H1567       H  0.40442112  0.65543326  0.71963337     0.13200
H1568       H  0.36797120  0.61922622  0.49289829     0.13200
H1569       H  0.42213532  0.59067856  0.50170712     0.13200
H1570       H  0.37791119  0.66799351  0.59920481     0.26400
H1571       H  0.41416588  0.63009746  0.61672084     0.26400
C1572       C  0.00624461  0.51495028  0.77345439     0.80500
N1573       N  0.97880507  0.51383203  0.75743033    -0.77800
C1574       C  0.97607927  0.49837939  0.72979912     0.82900
N1575       N  0.00196880  0.48269185  0.71890887    -0.77800
C1576       C  0.02986078  0.48306870  0.73534226     0.83000
N1577       N  0.03207673  0.50003367  0.76216914    -0.79500
N1578       N  0.15058739  0.39773871  0.62710816    -0.36300
N1579       N  0.16674830  0.34853647  0.58448920    -0.56900
N1580       N  0.12524661  0.30399035  0.61934844    -0.36300
N1581       N  0.11183224  0.35486527  0.66403896    -0.56900
C1582       C  0.17381976  0.41164103  0.61052808     0.27200
C1583       C  0.14623315  0.41497673  0.65328696     0.27200
C1584       C  0.14420463  0.28425771  0.60202794     0.27200
C1585       C  0.11103982  0.28806155  0.64344549     0.27200
C1586       C  0.17405540  0.37372439  0.56691972     0.35900
C1587       C  0.16344310  0.32437643  0.56424748     0.35900
C1588       C  0.10208003  0.38322634  0.67468057     0.35900
C1589       C  0.08811388  0.33461091  0.67107335     0.35900
C1590       C  0.18479853  0.43802939  0.62650911    -0.21600
C1591       C  0.16726027  0.44010739  0.65382274    -0.21600
C1592       C  0.14152500  0.25469156  0.61515153    -0.21600
C1593       C  0.12053401  0.25700549  0.64084730    -0.21600
C1594       C  0.17570372  0.36577209  0.53543786    -0.22700
C1595       C  0.16915667  0.33443226  0.53369251    -0.22700
C1596       C  0.07235321  0.38087887  0.68865474    -0.22700
C1597       C  0.06358476  0.35018690  0.68651795    -0.22700
C1598       C  0.18152984  0.40324462  0.57955191    -0.18000
C1599       C  0.12013802  0.41116219  0.67327261    -0.18000
C1600       C  0.08949779  0.30181700  0.66663541    -0.18000
C1601       C  0.16188189  0.29296105  0.57391435    -0.18000
H1602       H  0.20238485  0.45478280  0.61856645     0.14900
H1603       H  0.16843655  0.45888012  0.67109938     0.14900
H1604       H  0.15297928  0.23352763  0.60678349     0.14900
H1605       H  0.11333177  0.23802508  0.65597011     0.14900
H1606       H  0.18170654  0.38078032  0.51593348     0.13200
H1607       H  0.16940797  0.32077899  0.51224013     0.13200
H1608       H  0.05826984  0.39931125  0.69930484     0.13200
H1609       H  0.04153415  0.34051918  0.69543250     0.13200
H1610       H  0.13581511  0.37971554  0.61926551     0.26400
H1611       H  0.12122649  0.32738705  0.61421572     0.26400
N1612       N  0.88730650  0.59560582  0.59892230    -0.36300
N1613       N  0.83848309  0.63315826  0.57136577    -0.56900
N1614       N  0.78808133  0.60563696  0.61128345    -0.36300
N1615       N  0.83850940  0.56925146  0.64043516    -0.56900
C1616       C  0.90440769  0.61827372  0.58500035     0.27200
C1617       C  0.90527073  0.58451921  0.62237673     0.27200
C1618       C  0.77379009  0.63244929  0.60033575     0.27200
C1619       C  0.77288690  0.59479344  0.63778471     0.27200
C1620       C  0.86213536  0.63444316  0.54986249     0.35900
C1621       C  0.81168797  0.64102392  0.55611630     0.35900
C1622       C  0.86408121  0.55081050  0.64591569     0.35900
C1623       C  0.81307222  0.55396495  0.65251779     0.35900
C1624       C  0.93380328  0.62156743  0.59965736    -0.21600
C1625       C  0.93445325  0.59982973  0.62330432    -0.21600
C1626       C  0.74829944  0.63857918  0.62034004    -0.21600
C1627       C  0.74759100  0.61505298  0.64344939    -0.21600
C1628       C  0.85071689  0.64258601  0.52074797    -0.22700
C1629       C  0.81874315  0.64679176  0.52467030    -0.22700
C1630       C  0.85510175  0.52396528  0.66144925    -0.22700
C1631       C  0.82309780  0.52582566  0.66566617    -0.22700
C1632       C  0.89424611  0.63424045  0.55819694    -0.18000
C1633       C  0.89604114  0.55985022  0.64161922    -0.18000
C1634       C  0.78198989  0.56683813  0.65577822    -0.18000
C1635       C  0.78332573  0.64955497  0.57186144    -0.18000
H1636       H  0.95285967  0.63759839  0.59372996     0.14900
H1637       H  0.95406310  0.59574145  0.63928567     0.14900
H1638       H  0.73173444  0.65782949  0.61843594     0.14900
H1639       H  0.73056719  0.61336571  0.66246457     0.14900
H1640       H  0.86427091  0.64679115  0.49953188     0.13200
H1641       H  0.80309450  0.65472677  0.50649914     0.13200
H1642       H  0.87019188  0.50537628  0.66995887     0.13200
H1643       H  0.80956924  0.50851792  0.67834367     0.13200
H1644       H  0.86519753  0.58687828  0.59178370     0.26400
H1645       H  0.80701914  0.59437008  0.60025101     0.26400
N1646       N  0.11384999  0.85291798  0.66703968    -0.36300
N1647       N  0.13854763  0.90733606  0.69615274    -0.56900
N1648       N  0.11033910  0.94997611  0.65006655    -0.36300
N1649       N  0.08837158  0.89376493  0.61741115    -0.56900
C1650       C  0.13406099  0.84048516  0.68826228     0.27200
C1651       C  0.11054523  0.83200706  0.64344555     0.27200
C1652       C  0.13460939  0.96815067  0.66186921     0.27200
C1653       C  0.09881004  0.96254620  0.62311253     0.27200
C1654       C  0.13817408  0.88759217  0.72053679     0.35900
C1655       C  0.14117535  0.93614442  0.70850619     0.35900
C1656       C  0.07781697  0.86514589  0.60782013     0.35900
C1657       C  0.07006513  0.91510111  0.60244031     0.35900
C1658       C  0.14314796  0.81080855  0.67850938    -0.21600
C1659       C  0.12792326  0.80525866  0.65022815    -0.21600
C1660       C  0.13816966  0.99359186  0.64208419    -0.21600
C1661       C  0.11516997  0.99044552  0.61814291    -0.21600
C1662       C  0.14077749  0.90378823  0.74872529    -0.22700
C1663       C  0.14245772  0.93486620  0.74098362    -0.22700
C1664       C  0.05342349  0.86832702  0.58614341    -0.22700
C1665       C  0.04818184  0.89971633  0.58309992    -0.22700
C1666       C  0.14355220  0.85564364  0.71631208    -0.18000
C1667       C  0.09053177  0.83595798  0.61720338    -0.18000
C1668       C  0.07455206  0.94818044  0.60337960    -0.18000
C1669       C  0.15174343  0.96132809  0.69061924    -0.18000
H1670       H  0.15878803  0.79479703  0.69058463     0.14900
H1671       H  0.12950034  0.78396497  0.63630545     0.14900
H1672       H  0.15503625  0.01265455  0.64483245     0.14900
H1673       H  0.11173875  0.00628861  0.59873573     0.14900
H1674       H  0.14349757  0.89395448  0.77191022     0.13200
H1675       H  0.14680715  0.95437332  0.75676018     0.13200
H1676       H  0.04059032  0.84996151  0.57373491     0.13200
H1677       H  0.03069913  0.90992812  0.56758058     0.13200
H1678       H  0.10173920  0.87404133  0.66909123     0.26400
H1679       H  0.10124492  0.92980101  0.66021351     0.26400
N1680       N  0.11425845  0.62495214  0.85761899    -0.36300
N1681       N  0.15976627  0.64712434  0.90440507    -0.56900
N1682       N  0.11312723  0.63946344  0.95477245    -0.36300
N1683       N  0.07022596  0.61616508  0.90632311    -0.56900
C1684       C  0.14224880  0.62016023  0.84312628     0.27200
C1685       C  0.09284880  0.60564492  0.84413243     0.27200
C1686       C  0.14037214  0.64642270  0.97090933     0.27200
C1687       C  0.09470636  0.61879995  0.97133216     0.27200
C1688       C  0.17192871  0.65651450  0.87656577     0.35900
C1689       C  0.17053824  0.66808854  0.92593411     0.35900
C1690       C  0.05038403  0.61635947  0.88164925     0.35900
C1691       C  0.05214232  0.61759298  0.93209038     0.35900
C1692       C  0.13889555  0.59759474  0.81969711    -0.21600
C1693       C  0.10735061  0.58818335  0.82041337    -0.21600
C1694       C  0.13893932  0.63078715  0.99937149    -0.21600
C1695       C  0.11067611  0.61284065  0.99930418    -0.21600
C1696       C  0.18992763  0.68350793  0.88041445    -0.22700
C1697       C  0.18977453  0.69027733  0.91165247    -0.22700
C1698       C  0.01902485  0.61851141  0.89155293    -0.22700
C1699       C  0.02018090  0.61944413  0.92386085    -0.22700
C1700       C  0.16845810  0.63979100  0.84801625    -0.18000
C1701       C  0.06047944  0.60507302  0.85249621    -0.18000
C1702       C  0.06392615  0.60678287  0.96068490    -0.18000
C1703       C  0.16588241  0.66582402  0.95866677    -0.18000
H1704       H  0.15690576  0.58976244  0.80322060     0.14900
H1705       H  0.09624992  0.57113792  0.80484270     0.14900
H1706       H  0.15689229  0.63116962  0.01766001     0.14900
H1707       H  0.10273884  0.59758499  0.01790718     0.14900
H1708       H  0.20220241  0.69701857  0.86281356     0.13200
H1709       H  0.20325692  0.70895529  0.92265234     0.13200
H1710       H  0.99774712  0.61657455  0.87722649     0.13200
H1711       H  0.99997861  0.61853371  0.93960142     0.13200
H1712       H  0.10944473  0.64243265  0.87423829     0.26400
H1713       H  0.10745119  0.64926393  0.93317300     0.26400
C1714       C  0.76333910  0.25223524  0.30693193     0.80500
N1715       N  0.78286524  0.27076397  0.28967334    -0.77800
C1716       C  0.77052029  0.28959179  0.26740080     0.82900
N1717       N  0.73860646  0.28949498  0.26257693    -0.77800
C1718       C  0.71869712  0.27145218  0.27981801     0.83000
N1719       N  0.73126779  0.25280085  0.30228425    -0.79500
N1720       N  0.62418758  0.38756972  0.32774874    -0.36300
N1721       N  0.58631306  0.40891917  0.38235054    -0.56900
N1722       N  0.53228277  0.36939895  0.36374889    -0.36300
N1723       N  0.57010171  0.33398014  0.29055583    -0.56900
C1724       C  0.64713560  0.40280108  0.34372149     0.27200
C1725       C  0.63711752  0.37678416  0.30065518     0.27200
C1726       C  0.51688085  0.38759378  0.38550847     0.27200
C1727       C  0.51166444  0.34993456  0.34798577     0.27200
C1728       C  0.61612940  0.41480843  0.39327951     0.35900
C1729       C  0.56591150  0.41486680  0.40640444     0.35900
C1730       C  0.58858663  0.35705799  0.27942963     0.35900
C1731       C  0.54394685  0.34842709  0.30153255     0.35900
C1732       C  0.67484261  0.40299448  0.32555700    -0.21600
C1733       C  0.66849671  0.38579504  0.29861070    -0.21600
C1734       C  0.48491012  0.37848942  0.38421981    -0.21600
C1735       C  0.48173081  0.35452980  0.36107601    -0.21600
C1736       C  0.61453366  0.42447240  0.42450388    -0.22700
C1737       C  0.58288948  0.42531362  0.43240871    -0.22700
C1738       C  0.57270225  0.38557823  0.28037159    -0.22700
C1739       C  0.54439484  0.38014793  0.29525118    -0.22700
C1740       C  0.64489187  0.41287328  0.37551395    -0.18000
C1741       C  0.62162476  0.35479525  0.28118806    -0.18000
C1742       C  0.52128128  0.33293827  0.31963221    -0.18000
C1743       C  0.53211753  0.41139744  0.40579405    -0.18000
H1744       H  0.69776761  0.41297703  0.33178761     0.14900
H1745       H  0.68479774  0.38014828  0.27985468     0.14900
H1746       H  0.46577424  0.38816907  0.39827585     0.14900
H1747       H  0.45971070  0.34354981  0.35349537     0.14900
H1748       H  0.63406961  0.43077250  0.43997870     0.13200
H1749       H  0.57335487  0.43193628  0.45506329     0.13200
H1750       H  0.58258001  0.40841519  0.27524606     0.13200
H1751       H  0.52699177  0.39753119  0.30223124     0.13200
H1752       H  0.60166997  0.38181284  0.33593575     0.26400
H1753       H  0.55639351  0.36996064  0.35864430     0.26400
C1754       C  0.76635961  0.44559384  0.42789262     0.80500
N1755       N  0.77429670  0.43974861  0.45803857    -0.77800
C1756       C  0.80147325  0.45202495  0.47007258     0.82900
N1757       N  0.82005131  0.47065564  0.45216679    -0.77800
C1758       C  0.81234329  0.47659709  0.42183797     0.83000
N1759       N  0.78519674  0.46401201  0.41005566    -0.79500
C1760       C  0.98800354  0.49805095  0.25341696     0.80500
N1761       N  0.99861846  0.52734520  0.26036324    -0.77800
C1762       C  0.01328902  0.53334134  0.28837134     0.82900
N1763       N  0.01647458  0.50950783  0.30935752    -0.77800
C1764       C  0.00525675  0.48023670  0.30275948     0.83000
N1765       N  0.99138932  0.47504378  0.27462532    -0.79500
C1766       C  0.03649030  0.24743661  0.50010910     0.80500
N1767       N  0.01954035  0.22136886  0.50662152    -0.77800
C1768       C  0.99529971  0.22186278  0.52777109     0.82900
N1769       N  0.98853120  0.24927613  0.54266647    -0.77800
C1770       C  0.00574423  0.27553023  0.53684900     0.83000
N1771       N  0.02903580  0.27472142  0.51493083    -0.79500
N1772       N  0.09778861  0.33386114  0.36320458    -0.36300
N1773       N  0.15453787  0.30452462  0.38055322    -0.56900
N1774       N  0.19685860  0.35355511  0.35561092    -0.36300
N1775       N  0.13909059  0.38524823  0.33874151    -0.56900
C1776       C  0.08730978  0.31283054  0.38436777     0.27200
C1777       C  0.07844588  0.35880452  0.36531089     0.27200
C1778       C  0.21431599  0.34223871  0.38048507     0.27200
C1779       C  0.20802177  0.38227046  0.34644673     0.27200
C1780       C  0.13438144  0.28002742  0.38185861     0.35900
C1781       C  0.18404299  0.29317832  0.38328491     0.35900
C1782       C  0.10922183  0.39361724  0.33027838     0.35900
C1783       C  0.15915071  0.40065711  0.31921113     0.35900
C1784       C  0.06017293  0.32409963  0.39922813    -0.21600
C1785       C  0.05448882  0.35326543  0.38700740    -0.21600
C1786       C  0.23776466  0.36447867  0.38700438    -0.21600
C1787       C  0.23430168  0.38909072  0.36529701    -0.21600
C1788       C  0.15113112  0.25240863  0.38463009    -0.22700
C1789       C  0.18285049  0.26076943  0.38499184    -0.22700
C1790       C  0.11016244  0.41439955  0.30556072    -0.22700
C1791       C  0.14162818  0.41859915  0.29826869    -0.22700
C1792       C  0.10282950  0.28450673  0.39127037    -0.18000
C1793       C  0.08128685  0.38561957  0.34682423    -0.18000
C1794       C  0.19282354  0.40212255  0.32283164    -0.18000
C1795       C  0.20849922  0.31202702  0.39580522    -0.18000
H1796       H  0.04628664  0.31279957  0.41734189     0.14900
H1797       H  0.03523254  0.36879270  0.39360093     0.14900
H1798       H  0.25566885  0.36312220  0.40526164     0.14900
H1799       H  0.24853679  0.41025274  0.36462612     0.14900
H1800       H  0.14136111  0.22940797  0.38915922     0.13200
H1801       H  0.20272904  0.24554176  0.38977978     0.13200
H1802       H  0.09023441  0.42583986  0.29434655     0.13200
H1803       H  0.15041847  0.43435675  0.28047184     0.13200
H1804       H  0.11686836  0.33133897  0.34770487     0.26400
H1805       H  0.17787085  0.34204279  0.34467158     0.26400
N1806       N  0.89150326  0.39918525  0.60669209    -0.36300
N1807       N  0.92035785  0.35802554  0.65153085    -0.56900
N1808       N  0.86606253  0.36800241  0.69558340    -0.36300
N1809       N  0.84029117  0.41362358  0.64876590    -0.56900
C1810       C  0.92063355  0.39558476  0.59407087     0.27200
C1811       C  0.87770504  0.42354961  0.59259644     0.27200
C1812       C  0.88913155  0.35486882  0.71402944     0.27200
C1813       C  0.84657334  0.38700188  0.71316694     0.27200
C1814       C  0.93124389  0.34814420  0.62327230     0.35900
C1815       C  0.91803652  0.33220001  0.66930179     0.35900
C1816       C  0.82711302  0.41905049  0.62045608     0.35900
C1817       C  0.81627573  0.40479526  0.66756922     0.35900
C1818       C  0.92619403  0.41872912  0.57215092    -0.21600
C1819       C  0.89863625  0.43635862  0.57092762    -0.21600
C1820       C  0.88371670  0.36525089  0.74467646    -0.21600
C1821       C  0.85722456  0.38545671  0.74411371    -0.21600
C1822       C  0.93585605  0.31607831  0.62295025    -0.22700
C1823       C  0.92707801  0.30588862  0.65205310    -0.22700
C1824       C  0.79448370  0.41420363  0.62122523    -0.22700
C1825       C  0.78759905  0.40476387  0.65123007    -0.22700
C1826       C  0.93849850  0.36834725  0.59837837    -0.18000
C1827       C  0.84481864  0.42885236  0.59440773    -0.18000
C1828       C  0.81965961  0.40437164  0.70032813    -0.18000
C1829       C  0.91373089  0.33372660  0.70213269    -0.18000
H1830       H  0.94672531  0.42100853  0.55694786     0.14900
H1831       H  0.89378643  0.45502778  0.55460198     0.14900
H1832       H  0.89743838  0.35930144  0.76530015     0.14900
H1833       H  0.84713571  0.39747531  0.76426617     0.14900
H1834       H  0.94435806  0.30154077  0.60374057     0.13200
H1835       H  0.92770831  0.28182170  0.65979681     0.13200
H1836       H  0.77755719  0.41722246  0.60228062     0.13200
H1837       H  0.76410255  0.39979333  0.66049120     0.13200
H1838       H  0.87979898  0.38311146  0.62089156     0.26400
H1839       H  0.86332909  0.36359578  0.67156762     0.26400
N1840       N  0.86906270  0.40231027  0.15627004    -0.36300
N1841       N  0.83408289  0.36002049  0.11341374    -0.56900
N1842       N  0.86533267  0.38874714  0.05865935    -0.36300
N1843       N  0.89779867  0.43332145  0.10282385    -0.56900
C1844       C  0.85003156  0.38829706  0.17741354     0.27200
C1845       C  0.88432686  0.42582845  0.17155231     0.27200
C1846       C  0.84530008  0.36818718  0.04324720     0.27200
C1847       C  0.87963000  0.40844228  0.03753760     0.27200
C1848       C  0.82380599  0.34892902  0.14146776     0.35900
C1849       C  0.82100471  0.34143860  0.09077682     0.35900
C1850       C  0.91553311  0.44594674  0.12642668     0.35900
C1851       C  0.91341718  0.44007387  0.07600926     0.35900
C1852       C  0.85340481  0.40298281  0.20654996    -0.21600
C1853       C  0.87503803  0.42673122  0.20280780    -0.21600
C1854       C  0.84742573  0.37472946  0.01135693    -0.21600
C1855       C  0.86869645  0.39988426  0.00781714    -0.21600
C1856       C  0.80377829  0.32354996  0.13665262    -0.22700
C1857       C  0.80166534  0.31912200  0.10484407    -0.22700
C1858       C  0.94203091  0.46106020  0.11471954    -0.22700
C1859       C  0.94094474  0.45723899  0.08309414    -0.22700
C1860       C  0.83101403  0.36160529  0.17165244    -0.18000
C1861       C  0.90840401  0.44466252  0.15868217    -0.18000
C1862       C  0.90291414  0.43296626  0.04495431    -0.18000
C1863       C  0.82529431  0.34405712  0.05754745    -0.18000
H1864       H  0.84196704  0.39694867  0.22847853     0.14900
H1865       H  0.88349411  0.44234273  0.22123871     0.14900
H1866       H  0.83474458  0.36280962  0.99253253     0.14900
H1867       H  0.87547402  0.41049064  0.98579091     0.14900
H1868       H  0.79132906  0.30998635  0.15419655     0.13200
H1869       H  0.78681368  0.30170527  0.09337369     0.13200
H1870       H  0.96036448  0.47374001  0.12752256     0.13200
H1871       H  0.95866629  0.46667799  0.06731816     0.13200
H1872       H  0.87291054  0.39499645  0.13369843     0.26400
H1873       H  0.86964684  0.38897727  0.08221135     0.26400
N1874       N  0.91209387  0.61725187  0.37090477    -0.36300
N1875       N  0.93789184  0.67388901  0.35881401    -0.56900
N1876       N  0.88071258  0.70905001  0.38393069    -0.36300
N1877       N  0.85161031  0.64997932  0.39268140    -0.56900
C1878       C  0.93749486  0.60928194  0.35311956     0.27200
C1879       C  0.88927120  0.59610324  0.36509982     0.27200
C1880       C  0.89244690  0.72784852  0.36061518     0.27200
C1881       C  0.85027619  0.71730882  0.39159323     0.27200
C1882       C  0.96505808  0.65781717  0.36186989     0.35900
C1883       C  0.94453729  0.70398600  0.36356020     0.35900
C1884       C  0.84844060  0.61933516  0.40017394     0.35900
C1885       C  0.83451874  0.66663352  0.41429186     0.35900
C1886       C  0.93095053  0.58214161  0.33610722    -0.21600
C1887       C  0.90021508  0.57374081  0.34375469    -0.21600
C1888       C  0.86871433  0.74920263  0.35337544    -0.21600
C1889       C  0.84259126  0.74311814  0.37336298    -0.21600
C1890       C  0.99016391  0.67774338  0.36834491    -0.22700
C1891       C  0.97693353  0.70726647  0.37047340    -0.22700
C1892       C  0.82930429  0.61620472  0.42627002    -0.22700
C1893       C  0.82092226  0.64585805  0.43544769    -0.22700
C1894       C  0.96616950  0.62640944  0.35298945    -0.18000
C1895       C  0.86158569  0.59390608  0.38311597    -0.18000
C1896       C  0.83000012  0.69995014  0.41330655    -0.18000
C1897       C  0.92492521  0.72582915  0.34869399    -0.18000
H1898       H  0.94662308  0.56954906  0.32026454     0.14900
H1899       H  0.88772648  0.55301018  0.33547869     0.14900
H1900       H  0.87026766  0.76771176  0.33624720     0.14900
H1901       H  0.82010144  0.75542400  0.37337928     0.14900
H1902       H  0.01515939  0.67189658  0.36973435     0.13200
H1903       H  0.99014087  0.72896818  0.37313697     0.13200
H1904       H  0.82246619  0.59475663  0.43787090     0.13200
H1905       H  0.80642736  0.65046918  0.45562086     0.13200
H1906       H  0.91090079  0.63491130  0.38800831     0.26400
H1907       H  0.89322170  0.69115096  0.39489468     0.26400
N1908       N  0.85600085  0.15017258  0.43212466    -0.36300
N1909       N  0.89304905  0.09765610  0.45126878    -0.56900
N1910       N  0.86094035  0.05282385  0.40874072    -0.36300
N1911       N  0.82484491  0.10658240  0.38781795    -0.56900
C1912       C  0.88080451  0.16444888  0.44657399     0.27200
C1913       C  0.84452379  0.16996233  0.41064294     0.27200
C1914       C  0.88835496  0.03730011  0.41619345     0.27200
C1915       C  0.84913667  0.04198519  0.38072751     0.27200
C1916       C  0.89677587  0.11823058  0.47521363     0.35900
C1917       C  0.89869187  0.06932605  0.46340205     0.35900
C1918       C  0.80631543  0.13243525  0.38708043     0.35900
C1919       C  0.80751153  0.08301417  0.37480918     0.35900
C1920       C  0.88490259  0.19425050  0.43467383    -0.21600
C1921       C  0.86181167  0.19776423  0.41170416    -0.21600
C1922       C  0.89381213  0.01525119  0.39259303    -0.21600
C1923       C  0.86906030  0.01801432  0.37047037    -0.21600
C1924       C  0.90480375  0.10322185  0.50268233    -0.22700
C1925       C  0.90501057  0.07195683  0.49546842    -0.22700
C1926       C  0.77700088  0.12537507  0.37391068    -0.22700
C1927       C  0.77766214  0.09419032  0.36612429    -0.22700
C1928       C  0.89859067  0.15049815  0.47063231    -0.18000
C1929       C  0.81816799  0.16315759  0.39127592    -0.18000
C1930       C  0.82051298  0.05362826  0.36564280    -0.18000
C1931       C  0.90706746  0.04359991  0.44427198    -0.18000
H1932       H  0.90259308  0.21145865  0.44171453     0.14900
H1933       H  0.85814334  0.21834011  0.39751702     0.14900
H1934       H  0.91346967  0.99895881  0.39133459     0.14900
H1935       H  0.86636408  0.00424455  0.34911404     0.14900
H1936       H  0.91119255  0.11396229  0.52494616     0.13200
H1937       H  0.91204124  0.05343271  0.51118090     0.13200
H1938       H  0.75790088  0.14150586  0.36872136     0.13200
H1939       H  0.75866162  0.08192646  0.35398303     0.13200
H1940       H  0.84657787  0.12822430  0.43725304     0.26400
H1941       H  0.85013287  0.06981412  0.42281364     0.26400
O1942       O  0.03857000  0.27927402  0.68157924    -0.78200
C1943       C  0.97809256  0.19531665  0.69392383     0.82800
O1944       O  0.93888457  0.31434087  0.75085480    -0.79300
O1945       O  0.96281607  0.21863372  0.80157694    -0.80800
O1946       O  0.07671583  0.22948631  0.77640107    -0.80600
O1947       O  0.07598766  0.28290320  0.71848433    -0.79300
Zn1948     Zn  0.99714847  0.26575984  0.70653934     1.55700
O1949       O  0.03949413  0.19225526  0.77732801    -0.80600
Cd1950     Cd  0.05110106  0.27025477  0.76089380     1.59700
Cd1951     Cd  0.97373577  0.29133186  0.77928816     1.59600
O1952       O  0.04900999  0.30870385  0.79509486    -0.80600
O1953       O  0.00439818  0.26105019  0.75218888    -1.91100
Cd1954     Cd  0.99653600  0.21550063  0.76292756     1.59900
O1955       O  0.99989884  0.32689756  0.80399745    -0.80600
O1956       O  0.98132253  0.18820448  0.72301697    -0.79300
C1957       C  0.93837188  0.31466410  0.72079691     0.83300
C1958       C  0.06767951  0.28457464  0.68942067     0.82900
O1959       O  0.98325569  0.22348256  0.68499856    -0.78200
C1960       C  0.06862411  0.20084629  0.78117554     0.83800
O1961       O  0.95935029  0.29859802  0.70521560    -0.78300
C1962       C  0.03000066  0.32899649  0.80824757     0.83900
C1963       C  0.94855355  0.23801599  0.82070755     0.84200
O1964       O  0.94927009  0.26742504  0.81576568    -0.80700
C1965       C  0.99439290  0.24404608  0.98400559     0.80500
N1966       N  0.97588841  0.24003458  0.00953656    -0.77800
C1967       C  0.96380277  0.26524202  0.02489129     0.82900
N1968       N  0.97129566  0.29453235  0.01526326    -0.77800
C1969       C  0.99008104  0.29880281  0.98951837     0.83000
N1970       N  0.00128860  0.27324034  0.97416422    -0.79500
N1971       N  0.09815849  0.41955924  0.04812696    -0.36300
N1972       N  0.13104343  0.36379096  0.06255721    -0.56900
N1973       N  0.15417549  0.40102816  0.11749243    -0.36300
N1974       N  0.12196792  0.45764762  0.09964858    -0.56900
C1975       C  0.09609024  0.40228132  0.02153013     0.27200
C1976       C  0.09138986  0.44905215  0.04025418     0.27200
C1977       C  0.17331943  0.37581486  0.11442809     0.27200
C1978       C  0.17146581  0.42374052  0.13197368     0.27200
C1979       C  0.10726100  0.35205738  0.04464869     0.35900
C1980       C  0.13903198  0.34128357  0.08285370     0.35900
C1981       C  0.09556613  0.47439274  0.09194101     0.35900
C1982       C  0.13189255  0.46617861  0.12898023     0.35900
C1983       C  0.08952710  0.42108191  0.99610318    -0.21600
C1984       C  0.08738331  0.45101269  0.00789713    -0.21600
C1985       C  0.20326528  0.38259637  0.12637668    -0.21600
C1986       C  0.20237585  0.41313736  0.13669035    -0.21600
C1987       C  0.10063430  0.32140942  0.05281268    -0.22700
C1988       C  0.12119296  0.31439851  0.07713560    -0.22700
C1989       C  0.08862293  0.49455432  0.11677880    -0.22700
C1990       C  0.11183685  0.48967412  0.14001571    -0.22700
C1991       C  0.09129848  0.37004849  0.02218048    -0.18000
C1992       C  0.07942051  0.47071963  0.06217155    -0.18000
C1993       C  0.15861073  0.45182075  0.14466298    -0.18000
C1994       C  0.16221551  0.34575393  0.10626812    -0.18000
H1995       H  0.08411755  0.41357138  0.97230988     0.14900
H1996       H  0.07956658  0.47130667  0.99507725     0.14900
H1997       H  0.22340546  0.36703853  0.12839774     0.14900
H1998       H  0.22198720  0.42562212  0.14765297     0.14900
H1999       H  0.08254821  0.30614274  0.04283279     0.13200
H2000       H  0.12227236  0.29251392  0.08970068     0.13200
H2001       H  0.06915468  0.51106606  0.11800908     0.13200
H2002       H  0.11320385  0.50145668  0.16263568     0.13200
H2003       H  0.09802083  0.41091991  0.07097021     0.26400
H2004       H  0.12969378  0.40123775  0.11331549     0.26400
C2005       C  0.01413087  0.99967068  0.26822422     0.80500
N2006       N  0.99257048  0.02162475  0.26028367    -0.77800
C2007       C  0.98960732  0.03102608  0.23024579     0.82900
N2008       N  0.00876126  0.01906886  0.20750928    -0.77800
C2009       C  0.03016455  0.99670627  0.21496516     0.83000
N2010       N  0.03253726  0.98715744  0.24519252    -0.79500
C2011       C  0.19207094  0.24185528  0.18455183     0.80500
N2012       N  0.18276823  0.23421063  0.21419602    -0.77800
C2013       C  0.18801638  0.20463074  0.22476506     0.82900
N2014       N  0.20297802  0.18340072  0.20604467    -0.77800
C2015       C  0.21227662  0.19072184  0.17664124     0.83000
N2016       N  0.20639757  0.21990230  0.16638128    -0.79500
N2017       N  0.12930159  0.09502935  0.35537022    -0.36300
N2018       N  0.10319432  0.06223696  0.40968551    -0.56900
N2019       N  0.13236265  0.10692025  0.45372247    -0.36300
N2020       N  0.15621923  0.14164280  0.39842002    -0.56900
C2021       C  0.11074283  0.07375901  0.34036232     0.27200
C2022       C  0.13827852  0.11642647  0.33397730     0.27200
C2023       C  0.11079117  0.09265645  0.47321402     0.27200
C2024       C  0.14492544  0.13288243  0.46827034     0.27200
C2025       C  0.09645327  0.04131856  0.38659869     0.35900
C2026       C  0.09488464  0.04842461  0.43683466     0.35900
C2027       C  0.16567429  0.15412629  0.37066820     0.35900
C2028       C  0.17079890  0.15862005  0.42133756     0.35900
C2029       C  0.10884876  0.08085954  0.30871588    -0.21600
C2030       C  0.12662355  0.10755641  0.30455958    -0.21600
C2031       C  0.11023287  0.10974871  0.50117920    -0.21600
C2032       C  0.13191071  0.13460495  0.49826124    -0.21600
C2033       C  0.08423120  0.01403235  0.39893133    -0.22700
C2034       C  0.08292304  0.01848562  0.43043322    -0.22700
C2035       C  0.18551519  0.17946914  0.37604141    -0.22700
C2036       C  0.18900855  0.18209301  0.40774190    -0.22700
C2037       C  0.09529463  0.04819776  0.35446924    -0.18000
C2038       C  0.15637783  0.14384514  0.34021877    -0.18000
C2039       C  0.16701826  0.15513056  0.45442927    -0.18000
C2040       C  0.09280556  0.06414922  0.46626979    -0.18000
H2041       H  0.09608919  0.06808136  0.29049900     0.14900
H2042       H  0.13008580  0.11922881  0.28235417     0.14900
H2043       H  0.09591064  0.10472128  0.52168744     0.14900
H2044       H  0.13676520  0.15245310  0.51589977     0.14900
H2045       H  0.07527454  0.99359256  0.38647939     0.13200
H2046       H  0.07248918  0.00152525  0.44594289     0.13200
H2047       H  0.19642274  0.19474044  0.35897474     0.13200
H2048       H  0.20292769  0.20009779  0.41941804     0.13200
H2049       H  0.13542123  0.09483945  0.37887567     0.26400
H2050       H  0.13905321  0.09907153  0.43159068     0.26400
C2051       C  0.27602088  0.97993904  0.97336599     0.80500
N2052       N  0.25606577  0.00113934  0.96088589    -0.77800
C2053       C  0.22682036  0.99264344  0.95114280     0.82900
N2054       N  0.21771713  0.96252941  0.95302947    -0.77800
C2055       C  0.23725679  0.94049039  0.96494558     0.83000
N2056       N  0.26643534  0.94961807  0.97595071    -0.79500
N2057       N  0.34786498  0.10289011  0.08893839    -0.36300
N2058       N  0.38571530  0.14469565  0.13085927    -0.56900
N2059       N  0.44444344  0.11340352  0.10980110    -0.36300
N2060       N  0.40502062  0.07478868  0.06561053    -0.56900
C2061       C  0.32544819  0.12314115  0.09853103     0.27200
C2062       C  0.33606918  0.08760385  0.06352597     0.27200
C2063       C  0.45703674  0.13783851  0.12723657     0.27200
C2064       C  0.46748051  0.10000908  0.09113738     0.27200
C2065       C  0.35592655  0.14666075  0.14318678     0.35900
C2066       C  0.40620001  0.15279554  0.15432011     0.35900
C2067       C  0.38307292  0.05534685  0.05248712     0.35900
C2068       C  0.43309686  0.05995257  0.06256524     0.35900
C2069       C  0.29888771  0.12051450  0.07897380    -0.21600
C2070       C  0.30583500  0.09822516  0.05661979    -0.21600
C2071       C  0.48922966  0.13955436  0.11947002    -0.21600
C2072       C  0.49565839  0.11607490  0.09705004    -0.21600
C2073       C  0.35736840  0.15639134  0.17423378    -0.22700
C2074       C  0.38897488  0.15909238  0.18161930    -0.22700
C2075       C  0.39700968  0.02857628  0.04074491    -0.22700
C2076       C  0.42842053  0.03129315  0.04695655    -0.22700
C2077       C  0.32723651  0.14094860  0.12652739    -0.18000
C2078       C  0.35076402  0.06219198  0.04858523    -0.18000
C2079       C  0.46332107  0.07291923  0.07021353    -0.18000
C2080       C  0.43988188  0.15683383  0.15080275    -0.18000
H2081       H  0.27628918  0.13241428  0.08097208     0.14900
H2082       H  0.28998949  0.08984938  0.03823477     0.14900
H2083       H  0.50671108  0.15561336  0.12911060     0.14900
H2084       H  0.51862425  0.11123484  0.08654602     0.14900
H2085       H  0.33775055  0.16023784  0.19029715     0.13200
H2086       H  0.39791950  0.16436311  0.20494981     0.13200
H2087       H  0.38593025  0.00937506  0.02803705     0.13200
H2088       H  0.44559646  0.01399336  0.03950465     0.13200
H2089       H  0.36876959  0.09806696  0.10094931     0.26400
H2090       H  0.42127396  0.10513789  0.11155130     0.26400
N2091       N  0.10942660  0.12792061  0.90511419    -0.36300
N2092       N  0.15659287  0.10407342  0.86116220    -0.56900
N2093       N  0.13307294  0.14064029  0.80996204    -0.36300
N2094       N  0.08191618  0.16219036  0.85461626    -0.56900
C2095       C  0.12134417  0.10361336  0.92058059     0.27200
C2096       C  0.07991330  0.13245655  0.91617230     0.27200
C2097       C  0.14906017  0.11734465  0.79379318     0.27200
C2098       C  0.11151627  0.15521754  0.79092262     0.27200
C2099       C  0.17023550  0.10074394  0.88957787     0.35900
C2100       C  0.17997242  0.10096547  0.83973357     0.35900
C2101       C  0.06863648  0.17510518  0.88073039     0.35900
C2102       C  0.08383055  0.18539520  0.83341914     0.35900
C2103       C  0.09938354  0.09233244  0.94207832    -0.21600
C2104       C  0.07298442  0.11112159  0.93954534    -0.21600
C2105       C  0.13772743  0.11792808  0.76302575    -0.21600
C2106       C  0.11458258  0.14174659  0.76117843    -0.21600
C2107       C  0.20264368  0.09550680  0.88636167    -0.22700
C2108       C  0.20887745  0.09596357  0.85467749    -0.22700
C2109       C  0.06197689  0.20637999  0.87616248    -0.22700
C2110       C  0.07167607  0.21298545  0.84629452    -0.22700
C2111       C  0.15222613  0.09301037  0.91620931    -0.18000
C2112       C  0.06213197  0.15854761  0.90849428    -0.18000
C2113       C  0.09020192  0.18040469  0.80114469    -0.18000
C2114       C  0.17369587  0.09700573  0.80735088    -0.18000
H2115       H  0.10249413  0.07336170  0.95847478     0.14900
H2116       H  0.05172845  0.10985478  0.95384283     0.14900
H2117       H  0.14532670  0.10300753  0.74375897     0.14900
H2118       H  0.10127360  0.14803585  0.74038356     0.14900
H2119       H  0.21945316  0.08982641  0.90475886     0.13200
H2120       H  0.23169948  0.09161210  0.84380849     0.13200
H2121       H  0.05086717  0.22268665  0.89239347     0.13200
H2122       H  0.06899541  0.23543107  0.83506280     0.13200
H2123       H  0.12191871  0.14205988  0.88950313     0.26400
H2124       H  0.13684586  0.14732625  0.83326846     0.26400
N2125       N  0.13011046  0.89251672  0.09977001    -0.36300
N2126       N  0.10013482  0.85474539  0.15105181    -0.56900
N2127       N  0.11651551  0.79656888  0.11985976    -0.36300
N2128       N  0.14895938  0.83646394  0.07248775    -0.56900
C2129       C  0.12700171  0.91396752  0.12256330     0.27200
C2130       C  0.15253235  0.90279300  0.07957379     0.27200
C2131       C  0.10665262  0.78617317  0.14836703     0.27200
C2132       C  0.14052901  0.77817923  0.10832162     0.27200
C2133       C  0.08751342  0.88389811  0.15365271     0.35900
C2134       C  0.07788679  0.83469002  0.16266236     0.35900
C2135       C  0.15029056  0.85575910  0.04804295     0.35900
C2136       C  0.14330713  0.80800911  0.06069377     0.35900
C2137       C  0.14723091  0.93910404  0.11669723    -0.21600
C2138       C  0.16377708  0.93179646  0.08936110    -0.21600
C2139       C  0.12415909  0.75938297  0.15496335    -0.21600
C2140       C  0.14594112  0.75474621  0.13006455    -0.21600
C2141       C  0.05749442  0.88235589  0.16701531    -0.22700
C2142       C  0.05105641  0.85140909  0.17180392    -0.22700
C2143       C  0.14627855  0.83961348  0.02004091    -0.22700
C2144       C  0.14025404  0.80929817  0.02814314    -0.22700
C2145       C  0.10313419  0.91222387  0.14548036    -0.18000
C2146       C  0.16039854  0.88645498  0.05188205    -0.18000
C2147       C  0.15452893  0.78272856  0.07756329    -0.18000
C2148       C  0.08264643  0.80191054  0.16728597    -0.18000
H2149       H  0.14927504  0.96062028  0.13024042     0.14900
H2150       H  0.18118114  0.94636168  0.07764932     0.14900
H2151       H  0.12217700  0.74520284  0.17582125     0.14900
H2152       H  0.16300740  0.73591021  0.12791749     0.14900
H2153       H  0.04138653  0.90142727  0.17220875     0.13200
H2154       H  0.02872189  0.84255979  0.18070452     0.13200
H2155       H  0.14879215  0.84827500  0.99641427     0.13200
H2156       H  0.13712926  0.78996945  0.01174079     0.13200
H2157       H  0.11552485  0.87286667  0.09724082     0.26400
H2158       H  0.10635280  0.81547877  0.10828363     0.26400
N2159       N  0.85029976  0.13211543  0.19522890    -0.36300
N2160       N  0.89783251  0.17862147  0.17201069    -0.56900
N2161       N  0.84609387  0.19766919  0.13485387    -0.36300
N2162       N  0.79800050  0.15409148  0.15951649    -0.56900
C2163       C  0.87601353  0.13206359  0.21420837     0.27200
C2164       C  0.82532014  0.12207784  0.21246174     0.27200
C2165       C  0.86630122  0.22236774  0.13495116     0.27200
C2166       C  0.81758157  0.20845721  0.12600287     0.27200
C2167       C  0.91647157  0.15472221  0.18019315     0.35900
C2168       C  0.91348277  0.19403635  0.14934288     0.35900
C2169       C  0.78523753  0.12679736  0.17053135     0.35900
C2170       C  0.78485940  0.16128217  0.13107019     0.35900
C2171       C  0.86753656  0.12301906  0.24413046    -0.21600
C2172       C  0.83521416  0.11757369  0.24333654    -0.21600
C2173       C  0.85013879  0.24950992  0.12774070    -0.21600
C2174       C  0.81901423  0.24064462  0.12255996    -0.21600
C2175       C  0.94490263  0.15538183  0.16354133    -0.22700
C2176       C  0.94301420  0.18073680  0.14378469    -0.22700
C2177       C  0.76251779  0.11667515  0.14884810    -0.22700
C2178       C  0.76249190  0.13818357  0.12391351    -0.22700
C2179       C  0.90718952  0.13293217  0.20269755    -0.18000
C2180       C  0.79606650  0.11166415  0.19923535    -0.18000
C2181       C  0.79392672  0.18886365  0.11321212    -0.18000
C2182       C  0.89933242  0.21848923  0.13289605    -0.18000
H2183       H  0.88330109  0.11930107  0.26390167     0.14900
H2184       H  0.82106507  0.10930836  0.26285444     0.14900
H2185       H  0.86027103  0.27251048  0.12392246     0.14900
H2186       H  0.80006570  0.25530778  0.11416643     0.14900
H2187       H  0.96452570  0.13909033  0.16507191     0.13200
H2188       H  0.96063451  0.18783105  0.12667340     0.13200
H2189       H  0.74824280  0.09558115  0.15022735     0.13200
H2190       H  0.74784502  0.13676843  0.10298710     0.13200
H2191       H  0.85114830  0.13437812  0.17085238     0.26400
H2192       H  0.85240257  0.17406331  0.13513230     0.26400
C2193       C  0.29709073  0.99437952  0.02572908    -0.01600
C2194       C  0.30160282  0.99321078  0.99279707     0.08100
C2195       C  0.32239946  0.01464102  0.97840852    -0.01700
C2196       C  0.33707118  0.03835165  0.99631537    -0.01700
C2197       C  0.33151153  0.04030689  0.02896566     0.08200
C2198       C  0.31138202  0.01840464  0.04363960    -0.01900
Br2199     Br  0.30180637  0.02243867  0.08799275    -0.00400
Br2200     Br  0.26924775  0.96491852  0.04638166    -0.00500
Br2201     Br  0.36380293  0.06895382  0.97597189    -0.00500
Br2202     Br  0.32897347  0.01244671  0.93358080    -0.00500
C2203       C  0.21484061  0.89152551  0.02949943    -0.01600
C2204       C  0.18196472  0.89856591  0.02774942     0.08100
C2205       C  0.16863172  0.90743330  0.99894152    -0.01700
C2206       C  0.18828831  0.90995856  0.97267977    -0.01700
C2207       C  0.22161895  0.91179100  0.97685360     0.08200
C2208       C  0.23468508  0.89776173  0.00367632    -0.01900
Br2209     Br  0.27914017  0.88652825  0.00427551    -0.00400
Br2210     Br  0.23255752  0.87339141  0.06694454    -0.00500
Br2211     Br  0.16955512  0.91190796  0.93154594    -0.00500
Br2212     Br  0.12332796  0.91453785  0.99516723    -0.00500
C2213       C  0.18106343  0.01314564  0.92116548    -0.01600
C2214       C  0.20276187  0.01653152  0.94622652     0.08100
C2215       C  0.20033676  0.04238598  0.96736800    -0.01700
C2216       C  0.18027443  0.06721066  0.95974431    -0.01700
C2217       C  0.16191995  0.06491770  0.93241795     0.08200
C2218       C  0.15917132  0.03668626  0.91555766    -0.01900
Br2219     Br  0.12772340  0.03211962  0.88240553    -0.00400
Br2220     Br  0.18383013  0.97925050  0.89138556    -0.00500
Br2221     Br  0.17833225  0.10465107  0.98546039    -0.00500
Br2222     Br  0.22371870  0.04440344  0.00657539    -0.00500
C2223       C  0.14160398  0.18069119  0.29685813    -0.01600
C2224       C  0.16527945  0.16368065  0.31289474     0.08100
C2225       C  0.19703117  0.16446385  0.30208296    -0.01700
C2226       C  0.20484794  0.18206779  0.27550257    -0.01700
C2227       C  0.18047192  0.19536775  0.25714971     0.08200
C2228       C  0.14874301  0.19463557  0.26789018    -0.01900
Br2229     Br  0.11446092  0.20853542  0.24138649    -0.00400
Br2230     Br  0.09900240  0.18333121  0.31370429    -0.00500
Br2231     Br  0.24906912  0.18779969  0.26406006    -0.00500
Br2232     Br  0.22959032  0.14002243  0.32233084    -0.00500
C2233       C  0.24911346  0.18317995  0.13135745    -0.01600
C2234       C  0.23561023  0.17099380  0.15913936     0.08100
C2235       C  0.25041930  0.14487581  0.17335311    -0.01700
C2236       C  0.28077201  0.13531382  0.16305619    -0.01700
C2237       C  0.29666944  0.15238024  0.13951243     0.08200
C2238       C  0.28083749  0.17669918  0.12399539    -0.01900
Br2239     Br  0.30232716  0.20059383  0.09194134    -0.00400
Br2240     Br  0.22334978  0.20490359  0.10081766    -0.00500
Br2241     Br  0.30079662  0.09911336  0.18142512    -0.00500
Br2242     Br  0.22880842  0.12005857  0.20467220    -0.00500
C2243       C  0.05508783  0.98425795  0.30667307    -0.01600
C2244       C  0.02530757  0.99836442  0.30125166     0.08100
C2245       C  0.01581660  0.02293952  0.32153107    -0.01700
C2246       C  0.03920546  0.04029265  0.33753730    -0.01700
C2247       C  0.07127361  0.03052798  0.33609970     0.08200
C2248       C  0.07888441  0.00133370  0.32251133    -0.01900
Br2249     Br  0.12161607  0.98523527  0.32535448    -0.00400
Br2250     Br  0.06300722  0.94225544  0.29166262    -0.00500
Br2251     Br  0.02749779  0.07783719  0.36046495    -0.00500
Br2252     Br  0.97129995  0.03336504  0.32635146    -0.00500
C2253       C  0.92059063  0.07618724  0.19921149    -0.01600
C2254       C  0.92822343  0.10669530  0.21030950     0.08100
C2255       C  0.95583302  0.11211012  0.22833033    -0.01700
C2256       C  0.97630367  0.08716769  0.23465571    -0.01700
C2257       C  0.96859482  0.05690330  0.22346553     0.08200
C2258       C  0.94044081  0.05116055  0.20666706    -0.01900
Br2259     Br  0.92840203  0.00872076  0.19548296    -0.00400
Br2260     Br  0.88401708  0.06821222  0.17260539    -0.00500
Br2261     Br  0.01491222  0.09449065  0.25847700    -0.00500
Br2262     Br  0.96534083  0.15356610  0.24445388    -0.00500
C2263       C  0.04294002  0.97451256  0.16132279    -0.01600
C2264       C  0.05288484  0.98421991  0.19167152     0.08100
C2265       C  0.08413980  0.97740908  0.20181384    -0.01700
C2266       C  0.10164172  0.95425143  0.18619820    -0.01700
C2267       C  0.08995813  0.94169718  0.15785989     0.08200
C2268       C  0.06248344  0.95423305  0.14378290    -0.01900
Br2269     Br  0.04995276  0.94034281  0.10216791    -0.00400
Br2270     Br  0.00189771  0.98590954  0.14454805    -0.00500
Br2271     Br  0.13969260  0.93759772  0.20512877    -0.00500
Br2272     Br  0.10332532  0.00031711  0.23640333    -0.00500
C2273       C  0.19969274  0.30453054  0.12441788    -0.01600
C2274       C  0.17052070  0.32007708  0.12770754     0.08100
C2275       C  0.15078430  0.31395349  0.15378439    -0.01700
C2276       C  0.15905685  0.29041428  0.17517815    -0.01700
C2277       C  0.18743183  0.27325500  0.17062435     0.08200
C2278       C  0.20920671  0.28307555  0.14719882    -0.01900
Br2279     Br  0.25320326  0.26961351  0.14782128    -0.00400
Br2280     Br  0.22578231  0.31124537  0.08781815    -0.00500
Br2281     Br  0.13164849  0.28312003  0.21064154    -0.00500
Br2282     Br  0.11170764  0.33718391  0.15945283    -0.00500
C2283       C  0.03437869  0.32965516  0.96573730    -0.01600
C2284       C  0.00667692  0.32917354  0.98477224     0.08100
C2285       C  0.00410797  0.35169069  0.00891372    -0.01700
C2286       C  0.03198129  0.36450854  0.02183092    -0.01700
C2287       C  0.06168663  0.35840081  0.00724108     0.08200
C2288       C  0.06234744  0.34374432  0.97749283    -0.01900
Br2289     Br  0.10144749  0.34214764  0.95374671    -0.00400
Br2290     Br  0.03429261  0.31033850  0.92445631    -0.00500
Br2291     Br  0.02902389  0.38796309  0.06075926    -0.00500
Br2292     Br  0.96277184  0.36345825  0.02506321    -0.00500
C2293       C  0.04539423  0.21923697  0.96979356    -0.01600
C2294       C  0.01183391  0.21775271  0.97049674     0.08100
C2295       C  0.99561210  0.19199878  0.95704298    -0.01700
C2296       C  0.01274283  0.16979889  0.93956308    -0.01700
C2297       C  0.04544530  0.17461410  0.93432464     0.08200
C2298       C  0.06223483  0.19761587  0.95156613    -0.01900
Br2299     Br  0.10815234  0.20053638  0.94862746    -0.00400
Br2300     Br  0.06850019  0.25102393  0.99328483    -0.00500
Br2301     Br  0.99180692  0.13247395  0.92445093    -0.00500
Br2302     Br  0.95003162  0.18809152  0.96028589    -0.00500
C2303       C  0.90532890  0.22434236  0.07491137    -0.01600
C2304       C  0.91557841  0.23268607  0.10558141     0.08100
C2305       C  0.94024515  0.25486237  0.10969378    -0.01700
C2306       C  0.95521389  0.26783321  0.08313032    -0.01700
C2307       C  0.94421765  0.25971379  0.05274334     0.08200
C2308       C  0.91794045  0.23974626  0.04899806    -0.01900
Br2309     Br  0.89917670  0.23373794  0.00796333    -0.00400
Br2310     Br  0.87736764  0.18902088  0.06718621    -0.00500
Br2311     Br  0.99154476  0.29521814  0.08829913    -0.00500
Br2312     Br  0.95448023  0.26601587  0.15146350    -0.00500
C2313       C  0.96490796  0.31672343  0.53324645    -0.01600
C2314       C  0.99314772  0.30583426  0.54719916     0.08100
C2315       C  0.00770162  0.32303632  0.57167888    -0.01700
C2316       C  0.99212189  0.34936779  0.58431588    -0.01700
C2317       C  0.96101359  0.35660570  0.57423611     0.08200
C2318       C  0.94859031  0.34201027  0.54690678    -0.01900
Br2319     Br  0.90750393  0.35351035  0.53041043    -0.00400
Br2320     Br  0.94733773  0.29524565  0.49685786    -0.00500
Br2321     Br  0.01106626  0.37334143  0.61825350    -0.00500
Br2322     Br  0.04658189  0.30837074  0.59037739    -0.00500
C2323       C  0.95524767  0.15810693  0.48607193    -0.01600
C2324       C  0.92322280  0.16780797  0.48880126     0.08100
C2325       C  0.91463292  0.18944616  0.51253107    -0.01700
C2326       C  0.93843131  0.20331676  0.53152793    -0.01700
C2327       C  0.97093063  0.19652613  0.52559462     0.08200
C2328       C  0.97828461  0.17035001  0.50654244    -0.01900
Br2329     Br  0.01995875  0.15126179  0.50843278    -0.00400
Br2330     Br  0.96849890  0.13005863  0.45254175    -0.00500
Br2331     Br  0.92595618  0.22929459  0.56690654    -0.00500
Br2332     Br  0.87060465  0.20091352  0.51826058    -0.00500
C2333       C  0.08637156  0.26661897  0.47618607    -0.01600
C2334       C  0.05876266  0.24809996  0.47326890     0.08100
C2335       C  0.05003375  0.23567664  0.44333464    -0.01700
C2336       C  0.06685409  0.24502958  0.41634335    -0.01700
C2337       C  0.09158947  0.26708990  0.41914860     0.08200
C2338       C  0.10211361  0.27695937  0.44923808    -0.01900
Br2339     Br  0.13471865  0.30860559  0.45386068    -0.00400
Br2340     Br  0.10145207  0.27955980  0.51728157    -0.00500
Br2341     Br  0.05432376  0.23022396  0.37513476    -0.00500
Br2342     Br  0.01326982  0.20885694  0.43780834    -0.00500
C2343       C  0.03047145  0.57101576  0.32995053    -0.01600
C2344       C  0.02001410  0.56622873  0.29880273     0.08100
C2345       C  0.00554787  0.59184215  0.28353874    -0.01700
C2346       C  0.99304698  0.61645448  0.30197283    -0.01700
C2347       C  0.99343751  0.61390477  0.33503039     0.08200
C2348       C  0.01418765  0.59247704  0.34909862    -0.01900
Br2349     Br  0.01615000  0.58874711  0.39406211    -0.00400
Br2350     Br  0.06690195  0.54879751  0.34550983    -0.00500
Br2351     Br  0.97118863  0.65086366  0.28250602    -0.00500
Br2352     Br  0.00152771  0.59321781  0.23835177    -0.00500
C2353       C  0.98117320  0.46280209  0.20776391    -0.01600
C2354       C  0.97152602  0.49014491  0.22395343     0.08100
C2355       C  0.94219252  0.50436156  0.21657451    -0.01700
C2356       C  0.92185769  0.49011693  0.19431215    -0.01700
C2357       C  0.93026097  0.46108380  0.18072312     0.08200
C2358       C  0.95994145  0.44743138  0.18744949    -0.01900
Br2359     Br  0.97069735  0.40669315  0.17029617    -0.00400
Br2360     Br  0.02341092  0.44598462  0.21400273    -0.00500
Br2361     Br  0.88144239  0.50891798  0.18424721    -0.00500
Br2362     Br  0.92825567  0.54140993  0.23891415    -0.00500
C2363       C  0.02991692  0.45751853  0.35131242    -0.01600
C2364       C  0.01235045  0.45305712  0.32337280     0.08100
C2365       C  0.00831312  0.42195394  0.31189152    -0.01700
C2366       C  0.02965023  0.39869379  0.32142548    -0.01700
C2367       C  0.05341014  0.40624641  0.34352817     0.08200
C2368       C  0.05186670  0.43465566  0.36048837    -0.01900
Br2369     Br  0.08062610  0.44264743  0.39504490    -0.00400
Br2370     Br  0.02025605  0.49200129  0.37912910    -0.00500
Br2371     Br  0.02815580  0.35740587  0.30250438    -0.00500
Br2372     Br  0.97294853  0.41008405  0.28508771    -0.00500
C2373       C  0.81486268  0.47188424  0.52371401    -0.01600
C2374       C  0.80990426  0.44641573  0.50280888     0.08100
C2375       C  0.81314343  0.41540642  0.51319328    -0.01700
C2376       C  0.82158190  0.40982218  0.54440354    -0.01700
C2377       C  0.82856510  0.43524644  0.56464821     0.08200
C2378       C  0.82456912  0.46619899  0.55466704    -0.01900
Br2379     Br  0.83356761  0.50051177  0.58312100    -0.00400
Br2380     Br  0.80838254  0.51447738  0.51026510    -0.00500
Br2381     Br  0.82477371  0.36723272  0.55914914    -0.00500
Br2382     Br  0.80940381  0.38052604  0.48411337    -0.00500
C2383       C  0.81481633  0.51840678  0.37989694    -0.01600
C2384       C  0.82961870  0.50165336  0.40475941     0.08100
C2385       C  0.85866606  0.51318941  0.41743830    -0.01700
C2386       C  0.86811547  0.54395338  0.41144327    -0.01700
C2387       C  0.85081082  0.56192632  0.38987341     0.08200
C2388       C  0.82572725  0.54856758  0.37255013    -0.01900
Br2389     Br  0.80663325  0.57200666  0.33877796    -0.00400
Br2390     Br  0.78038951  0.50128744  0.35461970    -0.00500
Br2391     Br  0.90417830  0.56195623  0.43368768    -0.00500
Br2392     Br  0.88703432  0.48680619  0.44132821    -0.00500
C2393       C  0.69856388  0.39722890  0.39614655    -0.01600
C2394       C  0.67538734  0.42076767  0.39143738     0.08100
C2395       C  0.68223595  0.45212272  0.39968155    -0.01700
C2396       C  0.71150432  0.45972560  0.41357816    -0.01700
C2397       C  0.73507610  0.43662462  0.41626527     0.08200
C2398       C  0.72893640  0.40553562  0.40720595    -0.01900
Br2399     Br  0.76279208  0.37505963  0.40795077    -0.00400
Br2400     Br  0.68936918  0.35379097  0.38661950    -0.00500
Br2401     Br  0.71927075  0.50171586  0.42929966    -0.00500
Br2402     Br  0.65252238  0.48500950  0.39030828    -0.00500
C2403       C  0.79504096  0.20485535  0.31698971    -0.01600
C2404       C  0.77734897  0.23016043  0.32900991     0.08100
C2405       C  0.77408281  0.23462402  0.36173250    -0.01700
C2406       C  0.78721253  0.21265995  0.38245121    -0.01700
C2407       C  0.80544411  0.18763357  0.37035050     0.08200
C2408       C  0.81030800  0.18452349  0.33763362    -0.01900
Br2409     Br  0.83851010  0.15278432  0.32095719    -0.00400
Br2410     Br  0.79686274  0.19683673  0.27219891    -0.00500
Br2411     Br  0.77950868  0.21625931  0.42707315    -0.00500
Br2412     Br  0.75277564  0.27130697  0.37802489    -0.00500
C2413       C  0.66535846  0.28121576  0.30445734    -0.01600
C2414       C  0.68391692  0.27722890  0.27710362     0.08100
C2415       C  0.67233779  0.28953391  0.24864245    -0.01700
C2416       C  0.64926017  0.31328504  0.24934035    -0.01700
C2417       C  0.63707150  0.32358164  0.27841396     0.08200
C2418       C  0.64237723  0.30511236  0.30543531    -0.01900
Br2419     Br  0.61931472  0.31284284  0.34403230    -0.00400
Br2420     Br  0.67095098  0.25435852  0.34023232    -0.00500
Br2421     Br  0.63574777  0.33264474  0.21100757    -0.00500
Br2422     Br  0.68926780  0.27448116  0.20915098    -0.00500
C2423       C  0.82032527  0.30145757  0.23571460    -0.01600
C2424       C  0.79067750  0.31085221  0.24849320     0.08100
C2425       C  0.77818331  0.34031215  0.24032097    -0.01700
C2426       C  0.79074113  0.35667827  0.21478523    -0.01700
C2427       C  0.81813491  0.34533654  0.19956834     0.08200
C2428       C  0.83430728  0.31923612  0.21165226    -0.01900
Br2429     Br  0.87576590  0.30833563  0.19522282    -0.00400
Br2430     Br  0.84239073  0.26491068  0.25042384    -0.00500
Br2431     Br  0.77053697  0.39464346  0.20083826    -0.00500
Br2432     Br  0.74621045  0.35987394  0.26629917    -0.00500
C2433       C  0.94985814  0.49869349  0.67596161    -0.01600
C2434       C  0.95072697  0.50907022  0.70786214     0.08100
C2435       C  0.93276156  0.53606406  0.71658911    -0.01700
C2436       C  0.92082541  0.55554964  0.69340491    -0.01700
C2437       C  0.91969274  0.54514064  0.66222901     0.08200
C2438       C  0.93398985  0.51675604  0.65332547    -0.01900
Br2439     Br  0.93180688  0.50339363  0.60990223    -0.00400
Br2440     Br  0.96734109  0.45879332  0.66296416    -0.00500
Br2441     Br  0.90726726  0.59749443  0.70383050    -0.00500
Br2442     Br  0.92161961  0.54669321  0.75970302    -0.00500
C2443       C  0.06472246  0.47682463  0.68877099    -0.01600
C2444       C  0.05905333  0.47103151  0.72088967     0.08100
C2445       C  0.08175592  0.45426272  0.73860260    -0.01700
C2446       C  0.10653581  0.43887163  0.72275744    -0.01700
C2447       C  0.10728818  0.43882994  0.68979255     0.08200
C2448       C  0.08819792  0.45981779  0.67293243    -0.01900
Br2449     Br  0.09179338  0.46317464  0.62789962    -0.00400
Br2450     Br  0.04147605  0.50880460  0.66653216    -0.00500
Br2451     Br  0.13813750  0.41552174  0.74513273    -0.00500
Br2452     Br  0.07836397  0.45012988  0.78371834    -0.00500
C2453       C  0.03444240  0.55336944  0.84611108    -0.01600
C2454       C  0.03910076  0.58413877  0.83514815     0.08100
C2455       C  0.02706099  0.59345003  0.80598238    -0.01700
C2456       C  0.01373575  0.57085198  0.78592105    -0.01700
C2457       C  0.01086402  0.53965266  0.79636636     0.08200
C2458       C  0.01892526  0.53145179  0.82702677    -0.01900
Br2459     Br  0.01059395  0.48954041  0.84160700    -0.00400
Br2460     Br  0.05331271  0.53969054  0.88490516    -0.00500
Br2461     Br  0.00359482  0.58203513  0.74311160    -0.00500
Br2462     Br  0.03169432  0.63636584  0.79276843    -0.00500
C2463       C  0.27010145  0.61235415  0.51341582    -0.01600
C2464       C  0.26910800  0.58353550  0.52972236     0.08100
C2465       C  0.28826800  0.57994263  0.55667607    -0.01700
C2466       C  0.31126762  0.60292547  0.56389013    -0.01700
C2467       C  0.31682685  0.62785365  0.54280251     0.08200
C2468       C  0.29566796  0.63299162  0.51795720    -0.01900
Br2469     Br  0.30281230  0.66676063  0.48893095    -0.00400
Br2470     Br  0.23613599  0.62412610  0.48532466    -0.00500
Br2471     Br  0.33566222  0.59972100  0.60232548    -0.00500
Br2472     Br  0.28448666  0.54374122  0.58329787    -0.00500
C2473       C  0.22746202  0.43021022  0.55395571    -0.01600
C2474       C  0.19441376  0.42770897  0.55893026     0.08100
C2475       C  0.17340061  0.44987486  0.54623388    -0.01700
C2476       C  0.18561128  0.47590051  0.53050006    -0.01700
C2477       C  0.21865501  0.47862593  0.52579977     0.08200
C2478       C  0.23958625  0.45553211  0.53687188    -0.01900
Br2479     Br  0.28477472  0.45902511  0.52911690    -0.00400
Br2480     Br  0.25594826  0.39967037  0.57156176    -0.00500
Br2481     Br  0.15733272  0.50889902  0.51758367    -0.00500
Br2482     Br  0.12792285  0.44455181  0.55062172    -0.00500
C2483       C  0.30851398  0.76193422  0.70172347    -0.01600
C2484       C  0.28327840  0.74291959  0.71243576     0.08100
C2485       C  0.27505878  0.71542231  0.69529417    -0.01700
C2486       C  0.29532671  0.70394828  0.67189554    -0.01700
C2487       C  0.32222641  0.72147229  0.66323934     0.08200
C2488       C  0.32737674  0.75144800  0.67637518    -0.01900
Br2489     Br  0.36046531  0.77758178  0.65961396    -0.00400
Br2490     Br  0.31885693  0.80097905  0.72251499    -0.00500
Br2491     Br  0.28763278  0.66283000  0.65377605    -0.00500
Br2492     Br  0.23577119  0.69314308  0.70280567    -0.00500
C2493       C  0.17439143  0.66903121  0.79831719    -0.01600
C2494       C  0.18841962  0.64962658  0.82115582     0.08100
C2495       C  0.22181723  0.65033051  0.82549646    -0.01700
C2496       C  0.23933221  0.67606095  0.81438215    -0.01700
C2497       C  0.22412877  0.69788521  0.79503059     0.08200
C2498       C  0.19282788  0.69223074  0.78419694    -0.01900
Br2499     Br  0.17418781  0.71732389  0.75128246    -0.00400
Br2500     Br  0.12908427  0.66836657  0.78977223    -0.00500
Br2501     Br  0.28178250  0.68428141  0.82987209    -0.00500
Br2502     Br  0.24176038  0.61959258  0.85185612    -0.00500
C2503       C  0.19791558  0.85011389  0.74010965    -0.01600
C2504       C  0.16571580  0.84015787  0.73835627     0.08100
C2505       C  0.15483799  0.81628039  0.75826318    -0.01700
C2506       C  0.17655548  0.80088819  0.77786377    -0.01700
C2507       C  0.20958656  0.80663005  0.77434025     0.08200
C2508       C  0.21931327  0.83417531  0.75943792    -0.01900
Br2509     Br  0.26219189  0.84934686  0.76556640    -0.00400
Br2510     Br  0.21442991  0.88226858  0.71295311    -0.00500
Br2511     Br  0.16049952  0.77390753  0.81045479    -0.00500
Br2512     Br  0.11112005  0.80238276  0.75651985    -0.00500
C2513       C  0.25173458  0.58824068  0.40297705    -0.01600
C2514       C  0.21972786  0.59255166  0.39457271     0.08100
C2515       C  0.19701918  0.56882361  0.40078312    -0.01700
C2516       C  0.20556665  0.54340011  0.41964864    -0.01700
C2517       C  0.23712047  0.54106563  0.43069846     0.08200
C2518       C  0.26081327  0.56062209  0.41781386    -0.01900
Br2519     Br  0.30515944  0.55330453  0.42749708    -0.00400
Br2520     Br  0.28201541  0.62187220  0.39932735    -0.00500
Br2521     Br  0.17315143  0.51453048  0.43336453    -0.00500
Br2522     Br  0.15352705  0.57247973  0.38609981    -0.00500
C2523       C  0.05757846  0.69251748  0.43444723    -0.01600
C2524       C  0.05768431  0.72094060  0.45204711     0.08100
C2525       C  0.07929158  0.74501928  0.44351302    -0.01700
C2526       C  0.10396860  0.73874493  0.42204933    -0.01700
C2527       C  0.10540231  0.70944561  0.40680854     0.08200
C2528       C  0.08110136  0.68712449  0.41161408    -0.01900
Br2529     Br  0.08104302  0.64812834  0.38779079    -0.00400
Br2530     Br  0.02678330  0.65966638  0.44125368    -0.00500
Br2531     Br  0.13661408  0.76970266  0.41485828    -0.00500
Br2532     Br  0.07443678  0.78726680  0.45973976    -0.00500
C2533       C  0.94460514  0.63880690  0.52777795    -0.01600
C2534       C  0.91749020  0.65342687  0.54053731     0.08100
C2535       C  0.91530911  0.68649664  0.54095212    -0.01700
C2536       C  0.94098321  0.70451823  0.52999093    -0.01700
C2537       C  0.96969141  0.68970406  0.52163400     0.08200
C2538       C  0.97161546  0.65679788  0.52101661    -0.01900
Br2539     Br  0.01217955  0.63617377  0.51686924    -0.00400
Br2540     Br  0.94516765  0.59399629  0.52114643    -0.00500
Br2541     Br  0.93737486  0.74949599  0.52758560    -0.00500
Br2542     Br  0.87881410  0.70756843  0.55896946    -0.00500
C2543       C  0.03759356  0.77027517  0.58765067    -0.01600
C2544       C  0.05529035  0.75921704  0.56118828     0.08100
C2545       C  0.08746001  0.76944156  0.55776860    -0.01700
C2546       C  0.09905006  0.79458554  0.57602865    -0.01700
C2547       C  0.08003495  0.80748393  0.59992305     0.08200
C2548       C  0.05039075  0.79401473  0.60710262    -0.01900
Br2549     Br  0.02684423  0.80965006  0.64308897    -0.00400
Br2550     Br  0.99582160  0.75442421  0.59851483    -0.00500
Br2551     Br  0.14076832  0.81204649  0.56792958    -0.00500
Br2552     Br  0.11732074  0.74817626  0.53019834    -0.00500
C2553       C  0.65891230  0.26133681  0.67477192    -0.01600
C2554       C  0.66244077  0.26546535  0.70753898     0.08100
C2555       C  0.63919014  0.28294079  0.72401430    -0.01700
C2556       C  0.61842272  0.30224370  0.70693908    -0.01700
C2557       C  0.62237754  0.30503395  0.67420073     0.08200
C2558       C  0.64064921  0.28251163  0.65778571    -0.01900
Br2559     Br  0.64521184  0.28269218  0.61255175    -0.00400
Br2560     Br  0.67998286  0.22753794  0.65277214    -0.00500
Br2561     Br  0.58592674  0.32629935  0.72786810    -0.00500
Br2562     Br  0.63595781  0.28174114  0.76911949    -0.00500
C2563       C  0.74089520  0.18780949  0.78714336    -0.01600
C2564       C  0.72802957  0.21832601  0.79003988     0.08100
C2565       C  0.71077983  0.22656223  0.81718483    -0.01700
C2566       C  0.70302557  0.20341751  0.83902400    -0.01700
C2567       C  0.70951648  0.17173653  0.83168072     0.08200
C2568       C  0.72903096  0.16397984  0.80608673    -0.01900
Br2569     Br  0.73914691  0.12072794  0.79669410    -0.00400
Br2570     Br  0.77669898  0.17823229  0.76034273    -0.00500
Br2571     Br  0.68353561  0.21532622  0.87842258    -0.00500
Br2572     Br  0.69904551  0.26960401  0.82489450    -0.00500
C2573       C  0.79722147  0.26018167  0.68049192    -0.01600
C2574       C  0.77245610  0.24066000  0.69085954     0.08100
C2575       C  0.77169669  0.20870845  0.68231962    -0.01700
C2576       C  0.79785421  0.19537251  0.66723154    -0.01700
C2577       C  0.82304213  0.21467172  0.65700947     0.08200
C2578       C  0.82198162  0.24726473  0.66233985    -0.01900
Br2579     Br  0.85445443  0.27376135  0.64499902    -0.00400
Br2580     Br  0.79755177  0.30397252  0.69187562    -0.00500
Br2581     Br  0.80002339  0.15029825  0.66339202    -0.00500
Br2582     Br  0.73515677  0.18262834  0.69194227    -0.00500
C2583       C  0.44595147  0.14494079  0.54641491    -0.01600
C2584       C  0.43601994  0.15958288  0.57445084     0.08100
C2585       C  0.44620759  0.19018508  0.58189327    -0.01700
C2586       C  0.46157561  0.20814868  0.55904267    -0.01700
C2587       C  0.46908631  0.19447027  0.52951778     0.08200
C2588       C  0.46291176  0.16226143  0.52399055    -0.01900
Br2589     Br  0.47640263  0.14194698  0.48541088    -0.00400
Br2590     Br  0.43446857  0.10183862  0.53823526    -0.00500
Br2591     Br  0.46687918  0.25258985  0.56701511    -0.00500
Br2592     Br  0.43467115  0.20879369  0.62193494    -0.00500
C2593       C  0.44637329  0.19647243  0.41465725    -0.01600
C2594       C  0.46458024  0.22395752  0.41883792     0.08100
C2595       C  0.48633514  0.23169756  0.39499896    -0.01700
C2596       C  0.50024968  0.20724843  0.37759111    -0.01700
C2597       C  0.48855570  0.17636267  0.38117018     0.08200
C2598       C  0.45921153  0.17189514  0.39660721    -0.01900
Br2599     Br  0.43836161  0.13209997  0.39633272    -0.00400
Br2600     Br  0.40798845  0.19034587  0.43892872    -0.00500
Br2601     Br  0.53833241  0.21542007  0.35374970    -0.00500
Br2602     Br  0.50059161  0.27437207  0.39017367    -0.00500
C2603       C  0.51749589  0.31221021  0.50073477    -0.01600
C2604       C  0.53140838  0.28308709  0.49364032     0.08100
C2605       C  0.56363111  0.27745457  0.50059999    -0.01700
C2606       C  0.58146627  0.30037659  0.51670009    -0.01700
C2607       C  0.56653433  0.32818138  0.52683668     0.08200
C2608       C  0.53485176  0.33461791  0.51790723    -0.01900
Br2609     Br  0.51352696  0.37198374  0.53285992    -0.00400
Br2610     Br  0.47329222  0.31979373  0.49062961    -0.00500
Br2611     Br  0.62555572  0.29291825  0.52690038    -0.00500
Br2612     Br  0.58233697  0.23742318  0.49020846    -0.00500
C2613       C  0.60637325  0.08139851  0.46714610    -0.01600
C2614       C  0.62104939  0.10088726  0.44498697     0.08100
C2615       C  0.64988929  0.11608428  0.45221273    -0.01700
C2616       C  0.66645640  0.10826548  0.47970008    -0.01700
C2617       C  0.65470063  0.08373745  0.49890458     0.08200
C2618       C  0.62290417  0.07343502  0.49456851    -0.01900
Br2619     Br  0.60126237  0.04977955  0.52667384    -0.00400
Br2620     Br  0.56467578  0.06390041  0.45880459    -0.00500
Br2621     Br  0.70412726  0.13240373  0.49019459    -0.00500
Br2622     Br  0.66705909  0.14672376  0.42357907    -0.00500
C2623       C  0.65689137  0.96730157  0.53214956    -0.01600
C2624       C  0.68541841  0.98151853  0.54309152     0.08100
C2625       C  0.70408230  0.96558340  0.56579177    -0.01700
C2626       C  0.69044184  0.94123081  0.58279944    -0.01700
C2627       C  0.66035830  0.92972084  0.57445001     0.08200
C2628       C  0.64415943  0.94169685  0.54830198    -0.01900
Br2629     Br  0.60426322  0.92309201  0.53521531    -0.00400
Br2630     Br  0.63706756  0.97971260  0.49317037    -0.00500
Br2631     Br  0.71227246  0.92482817  0.61874182    -0.00500
Br2632     Br  0.74922421  0.97336391  0.57227277    -0.00500
C2633       C  0.80000980  0.07943344  0.58830210    -0.01600
C2634       C  0.81737940  0.09530954  0.56490254     0.08100
C2635       C  0.80566521  0.09665668  0.53400013    -0.01700
C2636       C  0.77709849  0.08179014  0.52626787    -0.01700
C2637       C  0.75794994  0.06974249  0.55031572     0.08200
C2638       C  0.76953566  0.06782368  0.58131295    -0.01900
Br2639     Br  0.74348563  0.05043796  0.61430183    -0.00400
Br2640     Br  0.81762331  0.07394383  0.62988957    -0.00500
Br2641     Br  0.76574494  0.07547081  0.48255070    -0.00500
Br2642     Br  0.82651084  0.12115099  0.50279724    -0.00500
C2643       C  0.40456693  0.05477880  0.72331880    -0.01600
C2644       C  0.41482141  0.08579601  0.71780734     0.08100
C2645       C  0.44380510  0.09665302  0.73031831    -0.01700
C2646       C  0.46507773  0.07520561  0.74342764    -0.01700
C2647       C  0.45495240  0.04392281  0.74844605     0.08200
C2648       C  0.42345221  0.03499462  0.74130764    -0.01900
Br2649     Br  0.40641031  0.99528405  0.75519457    -0.00400
Br2650     Br  0.36748272  0.03718063  0.70269826    -0.00500
Br2651     Br  0.50880440  0.08843071  0.74933809    -0.00500
Br2652     Br  0.45509584  0.14038237  0.72696850    -0.00500
C2653       C  0.57245387  0.04555543  0.83951308    -0.01600
C2654       C  0.60405270  0.04233470  0.82880024     0.08100
C2655       C  0.61106109  0.02262843  0.80305568    -0.01700
C2656       C  0.58606361  0.00775814  0.78651014    -0.01700
C2657       C  0.55421744  0.01170078  0.79703603     0.08200
C2658       C  0.54808301  0.02856728  0.82498536    -0.01900
Br2659     Br  0.50651308  0.02696548  0.84473737    -0.00400
Br2660     Br  0.56190256  0.07400963  0.87360929    -0.00500
Br2661     Br  0.59623451  0.98277398  0.74971069    -0.00500
Br2662     Br  0.65490298  0.01612137  0.79093759    -0.00500
C2663       C  0.51258771  0.91680079  0.72607167    -0.01600
C2664       C  0.50428883  0.94684452  0.71601161     0.08100
C2665       C  0.50677921  0.95494868  0.68396550    -0.01700
C2666       C  0.52018324  0.93363004  0.66261085    -0.01700
C2667       C  0.53326695  0.90554641  0.67382568     0.08200
C2668       C  0.52859499  0.89664850  0.70547945    -0.01900
Br2669     Br  0.54785008  0.85944701  0.72259014    -0.00400
Br2670     Br  0.50415661  0.90441427  0.76890139    -0.00500
Br2671     Br  0.52345477  0.94429043  0.61860581    -0.00500
Br2672     Br  0.49665364  0.99663271  0.66965127    -0.00500
C2673       C  0.42431224  0.52509436  0.16259639    -0.01600
C2674       C  0.42176184  0.55777558  0.16692184     0.08100
C2675       C  0.43478995  0.57204657  0.19407662    -0.01700
C2676       C  0.44978658  0.55366248  0.21652719    -0.01700
C2677       C  0.45892614  0.52282321  0.20855145     0.08200
C2678       C  0.44379367  0.50768464  0.18284550    -0.01900
Br2679     Br  0.44695966  0.46284284  0.17744228    -0.00400
Br2680     Br  0.39975082  0.50424502  0.13013438    -0.00500
Br2681     Br  0.45248825  0.56934169  0.25940077    -0.00500
Br2682     Br  0.42781816  0.61584132  0.20320332    -0.00500
C2683       C  0.58709248  0.45688553  0.19295316    -0.01600
C2684       C  0.55942802  0.47299132  0.18289686     0.08100
C2685       C  0.54869695  0.46937200  0.15147363    -0.01700
C2686       C  0.56100567  0.44529014  0.13279549    -0.01700
C2687       C  0.58521162  0.42634143  0.14484295     0.08200
C2688       C  0.60011349  0.43368819  0.17346323    -0.01900
Br2689     Br  0.63799832  0.41144699  0.18574820    -0.00400
Br2690     Br  0.60723693  0.46457502  0.23320938    -0.00500
Br2691     Br  0.54344737  0.43684500  0.09150259    -0.00500
Br2692     Br  0.51830178  0.49777631  0.13294218    -0.00500
C2693       C  0.47718926  0.71421358  0.10550995    -0.01600
C2694       C  0.47533709  0.73111909  0.07739963     0.08100
C2695       C  0.44582086  0.73686060  0.06325686    -0.01700
C2696       C  0.41899021  0.72020785  0.07324857    -0.01700
C2697       C  0.42126777  0.70096867  0.10010142     0.08200
C2698       C  0.44939940  0.70151581  0.11825274    -0.01900
Br2699     Br  0.45037521  0.68349484  0.15962665    -0.00400
Br2700     Br  0.51782030  0.70342580  0.12359063    -0.00500
Br2701     Br  0.38126811  0.72172071  0.04751035    -0.00500
Br2702     Br  0.44320286  0.76565598  0.02859342    -0.00500
C2703       C  0.60726964  0.81051209  0.10356917    -0.01600
C2704       C  0.63142231  0.81827257  0.08228533     0.08100
C2705       C  0.63347186  0.80303671  0.05315801    -0.01700
C2706       C  0.60789582  0.78460721  0.04242883    -0.01700
C2707       C  0.58172456  0.77798175  0.06294664     0.08200
C2708       C  0.58282790  0.78986606  0.09444946    -0.01900
Br2709     Br  0.55171652  0.77967477  0.12634520    -0.00400
Br2710     Br  0.60717112  0.83013140  0.14486075    -0.00500
Br2711     Br  0.60896050  0.77277006  0.99828332    -0.00500
Br2712     Br  0.67066931  0.80971141  0.02732895    -0.00500
C2713       C  0.57270894  0.68851719  0.98394351    -0.01600
C2714       C  0.54140339  0.69978072  0.98840771     0.08100
C2715       C  0.51798264  0.69454764  0.96483890    -0.01700
C2716       C  0.52665577  0.67981218  0.93637866    -0.01700
C2717       C  0.55836444  0.67044026  0.93168792     0.08200
C2718       C  0.58143931  0.67550591  0.95509028    -0.01900
Br2719     Br  0.62553135  0.66533861  0.94721508    -0.00400
Br2720     Br  0.60349414  0.68793870  0.01795079    -0.00500
Br2721     Br  0.49568423  0.67320128  0.90337982    -0.00500
Br2722     Br  0.47420100  0.70708137  0.97069233    -0.00500
C2723       C  0.70184935  0.38002028  0.03166648    -0.01600
C2724       C  0.67294673  0.38034086  0.01437100     0.08100
C2725       C  0.67282592  0.39302111  0.98398419    -0.01700
C2726       C  0.69930173  0.41065402  0.97415353    -0.01700
C2727       C  0.72322187  0.41894467  0.99632619     0.08200
C2728       C  0.72720901  0.39947559  0.02252055    -0.01900
Br2729     Br  0.76557977  0.40137876  0.04739474    -0.00400
Br2730     Br  0.70510027  0.35676694  0.07027683    -0.00500
Br2731     Br  0.70042524  0.42792322  0.93237965    -0.00500
Br2732     Br  0.63561343  0.38967282  0.95749055    -0.00500
C2733       C  0.79335138  0.52071783  0.10311308    -0.01600
C2734       C  0.81529468  0.54316389  0.09226359     0.08100
C2735       C  0.81942465  0.54744991  0.05953855    -0.01700
C2736       C  0.80135520  0.52965497  0.03800024    -0.01700
C2737       C  0.77809809  0.50863093  0.04895629     0.08200
C2738       C  0.77420354  0.50399475  0.08148917    -0.01900
Br2739     Br  0.74127034  0.47624396  0.09640941    -0.00400
Br2740     Br  0.78988486  0.51272111  0.14751263    -0.00500
Br2741     Br  0.80852136  0.53385173  0.99332789    -0.00500
Br2742     Br  0.84887993  0.57853434  0.04386201    -0.00500
C2743       C  0.65548025  0.50934799  0.97345199    -0.01600
C2744       C  0.68529640  0.52347524  0.98038186     0.08100
C2745       C  0.69253259  0.55319700  0.96801639    -0.01700
C2746       C  0.67216980  0.56612859  0.94546890    -0.01700
C2747       C  0.64576372  0.54867249  0.93423247     0.08200
C2748       C  0.63696235  0.52062615  0.94871024    -0.01900
Br2749     Br  0.60193579  0.49587178  0.93245532    -0.00400
Br2750     Br  0.63968653  0.47466895  0.99791049    -0.00500
Br2751     Br  0.68246065  0.60624389  0.92732373    -0.00500
Br2752     Br  0.73097164  0.57558551  0.97945881    -0.00500
C2753       C  0.55715358  0.60132554  0.28839943    -0.01600
C2754       C  0.57253135  0.58979636  0.31523715     0.08100
C2755       C  0.57830077  0.55753089  0.31867181    -0.01700
C2756       C  0.56629435  0.53643184  0.29634825    -0.01700
C2757       C  0.55143928  0.54802321  0.26934587     0.08200
C2758       C  0.54813279  0.58043553  0.26457162    -0.01900
Br2759     Br  0.53118060  0.59624430  0.22555762    -0.00400
Br2760     Br  0.54558837  0.64499154  0.28563903    -0.00500
Br2761     Br  0.56719786  0.49200274  0.30434735    -0.00500
Br2762     Br  0.60174797  0.54221059  0.35434108    -0.00500
C2763       C  0.70504001  0.75580329  0.33256217    -0.01600
C2764       C  0.69544190  0.76170194  0.30155556     0.08100
C2765       C  0.66420166  0.75453892  0.29169616    -0.01700
C2766       C  0.64261895  0.74142859  0.31296064    -0.01700
C2767       C  0.65360749  0.73100663  0.34231700     0.08200
C2768       C  0.68480553  0.73896551  0.35255625    -0.01900
Br2769     Br  0.70210916  0.72356032  0.39159278    -0.00400
Br2770     Br  0.74723460  0.76808018  0.34627138    -0.00500
Br2771     Br  0.59846531  0.73574151  0.30120211    -0.00500
Br2772     Br  0.65227222  0.75767296  0.24805480    -0.00500
C2773       C  0.78432287  0.72498384  0.19487341    -0.01600
C2774       C  0.77480079  0.72357190  0.22694670     0.08100
C2775       C  0.78084442  0.69587670  0.24415934    -0.01700
C2776       C  0.79437695  0.66973591  0.22909142    -0.01700
C2777       C  0.80641939  0.67246702  0.19847922     0.08200
C2778       C  0.80123259  0.69994647  0.18129366    -0.01900
Br2779     Br  0.81845818  0.70354948  0.13925305    -0.00400
Br2780     Br  0.77461814  0.76033233  0.16834407    -0.00500
Br2781     Br  0.79795306  0.63033990  0.25071334    -0.00500
Br2782     Br  0.77532485  0.69421607  0.28932456    -0.00500
C2783       C  0.71784500  0.84877099  0.22011481    -0.01600
C2784       C  0.74687221  0.83438352  0.22859689     0.08100
C2785       C  0.77556072  0.84461654  0.21448440    -0.01700
C2786       C  0.77451359  0.86398675  0.18792012    -0.01700
C2787       C  0.74502279  0.87557704  0.17753512     0.08200
C2788       C  0.71757091  0.87117441  0.19636038    -0.01900
Br2789     Br  0.67773541  0.89174951  0.18642776    -0.00400
Br2790     Br  0.67698355  0.83452799  0.23558998    -0.00500
Br2791     Br  0.81292195  0.87202610  0.16465671    -0.00500
Br2792     Br  0.81612543  0.82998737  0.22987427    -0.00500
C2793       C  0.33613566  0.55898920  0.94589880    -0.01600
C2794       C  0.33154448  0.54443102  0.97495630     0.08100
C2795       C  0.35000518  0.55350208  0.00138215    -0.01700
C2796       C  0.37384653  0.57642243  0.99827382    -0.01700
C2797       C  0.37758142  0.59172219  0.96943615     0.08200
C2798       C  0.35760805  0.58385765  0.94357059    -0.01900
Br2799     Br  0.35953975  0.60614695  0.90420198    -0.00400
Br2800     Br  0.31694215  0.54200293  0.90807227    -0.00500
Br2801     Br  0.40230978  0.58582817  0.03275825    -0.00500
Br2802     Br  0.34316685  0.53417738  0.04168536    -0.00500
C2803       C  0.21001484  0.46643319  0.98086049    -0.01600
C2804       C  0.22784044  0.48886673  0.96411964     0.08100
C2805       C  0.21541069  0.50085767  0.93586325    -0.01700
C2806       C  0.18895256  0.48612500  0.92169430    -0.01700
C2807       C  0.17535147  0.45946255  0.93569067     0.08200
C2808       C  0.18514682  0.45029624  0.96583383    -0.01900
Br2809     Br  0.16799683  0.41305020  0.98463879    -0.00400
Br2810     Br  0.22121979  0.45639080  0.02375270    -0.00500
Br2811     Br  0.17304395  0.50056309  0.88174267    -0.00500
Br2812     Br  0.23479038  0.53612368  0.91554105    -0.00500
C2813       C  0.30573219  0.38716170  0.02764568    -0.01600
C2814       C  0.32948458  0.39364131  0.05003146     0.08100
C2815       C  0.35189217  0.41774194  0.04486193    -0.01700
C2816       C  0.34928058  0.43652112  0.01830109    -0.01700
C2817       C  0.32194450  0.43374826  0.99897765     0.08200
C2818       C  0.30265545  0.40656593  0.00139554    -0.01900
Br2819     Br  0.27308391  0.39490609  0.96832595    -0.00400
Br2820     Br  0.27597939  0.35353575  0.03428230    -0.00500
Br2821     Br  0.38424409  0.46450042  0.00858338    -0.00500
Br2822     Br  0.38454229  0.42734894  0.07576442    -0.00500
C2823       C  0.51389905  0.41239014  0.78859865    -0.01600
C2824       C  0.52558878  0.43012896  0.76344607     0.08100
C2825       C  0.55630835  0.42476008  0.75155690    -0.01700
C2826       C  0.57671293  0.40434540  0.76734444    -0.01700
C2827       C  0.56660432  0.39041716  0.79566966     0.08200
C2828       C  0.53478529  0.39377983  0.80580579    -0.01900
Br2829     Br  0.52079081  0.37822019  0.84590524    -0.00400
Br2830     Br  0.46981558  0.41604485  0.80112660    -0.00500
Br2831     Br  0.61981908  0.39883523  0.75233386    -0.00500
Br2832     Br  0.57203979  0.44847904  0.71651920    -0.00500
C2833       C  0.50481042  0.55002551  0.81287556    -0.01600
C2834       C  0.48273637  0.52756985  0.80226319     0.08100
C2835       C  0.45262189  0.52485675  0.81648230    -0.01700
C2836       C  0.44327550  0.54684869  0.83928554    -0.01700
C2837       C  0.46448434  0.57097629  0.84832397     0.08200
C2838       C  0.49554523  0.57180846  0.83592012    -0.01900
Br2839     Br  0.52394090  0.60484135  0.84808525    -0.00400
Br2840     Br  0.54691754  0.55187875  0.79463239    -0.00500
Br2841     Br  0.40059338  0.54541519  0.85599006    -0.00500
Br2842     Br  0.42402993  0.49133831  0.80427126    -0.00500
C2843       C  0.42953577  0.50000706  0.69551917    -0.01600
C2844       C  0.46284504  0.49564042  0.69371815     0.08100
C2845       C  0.47620175  0.48327763  0.66590823    -0.01700
C2846       C  0.45651305  0.46864482  0.64362178    -0.01700
C2847       C  0.42365337  0.46659489  0.64961859     0.08200
C2848       C  0.40981650  0.48393147  0.67419190    -0.01900
Br2849     Br  0.36426005  0.48271048  0.68031411    -0.00400
Br2850     Br  0.41042890  0.52618766  0.72746742    -0.00500
Br2851     Br  0.47477429  0.44825756  0.60709954    -0.00500
Br2852     Br  0.52154981  0.48429017  0.65979871    -0.00500
C2853       C  0.57324307  0.24292052  0.90793791    -0.01600
C2854       C  0.57050722  0.27522516  0.90314229     0.08100
C2855       C  0.54782992  0.29259090  0.92038454    -0.01700
C2856       C  0.53094026  0.27828674  0.94474591    -0.01700
C2857       C  0.53991442  0.24817789  0.95466488     0.08200
C2858       C  0.55976775  0.22970563  0.93498351    -0.01900
Br2859     Br  0.57279126  0.18822147  0.94642567    -0.00400
Br2860     Br  0.59965695  0.21850113  0.88002615    -0.00500
Br2861     Br  0.49521916  0.29977712  0.96378540    -0.00500
Br2862     Br  0.54286018  0.33689179  0.91407625    -0.00500
C2863       C  0.50786490  0.30414799  0.05663906    -0.01600
C2864       C  0.50605053  0.27169913  0.06296133     0.08100
C2865       C  0.48773431  0.26208720  0.08897276    -0.01700
C2866       C  0.46419384  0.28195578  0.10119721    -0.01700
C2867       C  0.46095711  0.31255541  0.08928875     0.08200
C2868       C  0.48480619  0.32450182  0.06947046    -0.01900
Br2869     Br  0.48624686  0.36869741  0.06093209    -0.00400
Br2870     Br  0.54336566  0.32134323  0.03362185    -0.00500
Br2871     Br  0.43640600  0.26668627  0.13393333    -0.00500
Br2872     Br  0.49624572  0.22275162  0.10925825    -0.00500
C2873       C  0.43268972  0.15474941  0.99718418    -0.01600
C2874       C  0.44652669  0.14270347  0.96905693     0.08100
C2875       C  0.48021813  0.13791302  0.96862492    -0.01700
C2876       C  0.49801488  0.14613127  0.99519514    -0.01700
C2877       C  0.48569008  0.16885933  0.01543903     0.08200
C2878       C  0.45242713  0.17008232  0.01932649    -0.01900
Br2879     Br  0.43390710  0.19514488  0.05244327    -0.00400
Br2880     Br  0.38784165  0.15035523  0.00636565    -0.00500
Br2881     Br  0.54178315  0.13407466  0.99986777    -0.00500
Br2882     Br  0.50466218  0.12719096  0.93137381    -0.00500
C2883       C  0.33061680  0.20302720  0.81433202    -0.01600
C2884       C  0.30673112  0.22506844  0.82300208     0.08100
C2885       C  0.29194825  0.22240663  0.85310345    -0.01700
C2886       C  0.29842170  0.19652532  0.87214872    -0.01700
C2887       C  0.32238815  0.17554935  0.86339160     0.08200
C2888       C  0.33938270  0.17951213  0.83524769    -0.01900
Br2889     Br  0.37511970  0.15228627  0.82546086    -0.00400
Br2890     Br  0.35159112  0.20251754  0.77393371    -0.00500
Br2891     Br  0.27487749  0.18953669  0.91046840    -0.00500
Br2892     Br  0.26557253  0.25506534  0.87111061    -0.00500
C2893       C  0.34257109  0.34528462  0.70904393    -0.01600
C2894       C  0.35014680  0.32798344  0.68147079     0.08100
C2895       C  0.34980579  0.29498641  0.68203853    -0.01700
C2896       C  0.33712818  0.27960109  0.70819514    -0.01700
C2897       C  0.32922281  0.29700430  0.73535642     0.08200
C2898       C  0.33525977  0.32935142  0.73667964    -0.01900
Br2899     Br  0.33313145  0.35161793  0.77645112    -0.00400
Br2900     Br  0.33771363  0.39031600  0.70878208    -0.00500
Br2901     Br  0.32721345  0.23567362  0.70490751    -0.00500
Br2902     Br  0.36565982  0.27091400  0.64669357    -0.00500
C2903       C  0.18096289  0.30927963  0.82442960    -0.01600
C2904       C  0.18230885  0.34204678  0.82190224     0.08100
C2905       C  0.20489888  0.35629407  0.80245892    -0.01700
C2906       C  0.22726728  0.33787196  0.78635615    -0.01700
C2907       C  0.22897092  0.30510131  0.79219587     0.08200
C2908       C  0.20412081  0.29074217  0.80952200    -0.01900
Br2909     Br  0.19965407  0.24565915  0.81102128    -0.00400
Br2910     Br  0.14757948  0.28995409  0.84896537    -0.00500
Br2911     Br  0.25294950  0.35878741  0.75518863    -0.00500
Br2912     Br  0.20502540  0.40139304  0.79817410    -0.00500
C2913       C  0.41888531  0.81919289  0.53280927    -0.01600
C2914       C  0.44797511  0.81608250  0.51684811     0.08100
C2915       C  0.47681381  0.82483514  0.53168287    -0.01700
C2916       C  0.47620346  0.84036567  0.56078181    -0.01700
C2917       C  0.44713028  0.84365570  0.57678877     0.08200
C2918       C  0.41865401  0.83151398  0.56347829    -0.01900
Br2919     Br  0.37894405  0.83278827  0.58663757    -0.00400
Br2920     Br  0.37924083  0.80969615  0.51182864    -0.00500
Br2921     Br  0.51473369  0.85910989  0.57685344    -0.00500
Br2922     Br  0.51732515  0.81597999  0.51179528    -0.00500
C2923       C  0.32708930  0.95614087  0.53905370    -0.01600
C2924       C  0.31065169  0.98291413  0.54938586     0.08100
C2925       C  0.32438046  0.00310075  0.57201382    -0.01700
C2926       C  0.35265871  0.99411075  0.58695354    -0.01700
C2927       C  0.36396656  0.96344057  0.58252430     0.08200
C2928       C  0.35311935  0.94553770  0.55643384    -0.01900
Br2929     Br  0.37132605  0.90551883  0.54551899    -0.00400
Br2930     Br  0.31362504  0.93401703  0.50134169    -0.00500
Br2931     Br  0.37447057  0.02193880  0.61568273    -0.00500
Br2932     Br  0.30267214  0.04054383  0.58551894    -0.00500
C2933       C  0.25139852  0.02734520  0.43720601    -0.01600
C2934       C  0.25435058  0.03755582  0.46884163     0.08100
C2935       C  0.26802471  0.06694590  0.47566267    -0.01700
C2936       C  0.28466622  0.08288293  0.45231113    -0.01700
C2937       C  0.28304510  0.07221916  0.42078380     0.08200
C2938       C  0.26474717  0.04550888  0.41303682    -0.01900
Br2939     Br  0.25961521  0.03310814  0.36956301    -0.00400
Br2940     Br  0.23207703  0.98744826  0.42681912    -0.00500
Br2941     Br  0.31311490  0.11650745  0.46486124    -0.00500
Br2942     Br  0.26516579  0.08462870  0.51761837    -0.00500
C2943       C  0.15268474  0.93798062  0.49482241    -0.01600
C2944       C  0.16106862  0.90611043  0.49204144     0.08100
C2945       C  0.18812272  0.89487024  0.50774787    -0.01700
C2946       C  0.20933263  0.91622168  0.52223379    -0.01700
C2947       C  0.20279655  0.94878693  0.52110148     0.08200
C2948       C  0.17238658  0.95862594  0.51157541    -0.01900
Br2949     Br  0.15849456  0.00099003  0.52015482    -0.00400
Br2950     Br  0.11798972  0.95516892  0.47097173    -0.00500
Br2951     Br  0.24702575  0.90012166  0.54223179    -0.00500
Br2952     Br  0.19747770  0.85062564  0.50616677    -0.00500
C2953       C  0.54236301  0.87516970  0.43422963    -0.01600
C2954       C  0.55976390  0.85999613  0.41046827     0.08100
C2955       C  0.54414721  0.83985787  0.38884190    -0.01700
C2956       C  0.51178373  0.83280683  0.39284254    -0.01700
C2957       C  0.49554547  0.84443815  0.41957127     0.08200
C2958       C  0.50973767  0.86904995  0.43736697    -0.01900
Br2959     Br  0.48445060  0.89640200  0.46387302    -0.00400
Br2960     Br  0.56341887  0.90424698  0.46236321    -0.00500
Br2961     Br  0.48953855  0.80952776  0.36026226    -0.00500
Br2962     Br  0.56721457  0.82154751  0.35387037    -0.00500
C2963       C  0.55165735  0.94141253  0.24601349    -0.01600
C2964       C  0.55647530  0.97406965  0.24624748     0.08100
C2965       C  0.58309402  0.98735623  0.26143943    -0.01700
C2966       C  0.60370218  0.96816730  0.27850997    -0.01700
C2967       C  0.59698001  0.93593299  0.28088972     0.08200
C2968       C  0.57209307  0.92226423  0.26336279    -0.01900
Br2969     Br  0.56529801  0.87758687  0.26466553    -0.00400
Br2970     Br  0.51509751  0.92340627  0.22488842    -0.00500
Br2971     Br  0.63975544  0.98622992  0.30035789    -0.00500
Br2972     Br  0.58947464  0.03211464  0.26105571    -0.00500
C2973       C  0.45621222  0.03379358  0.16093800    -0.01600
C2974       C  0.48388743  0.01612646  0.16705477     0.08100
C2975       C  0.48974573  0.98939034  0.14819034    -0.01700
C2976       C  0.46413965  0.97466677  0.13278217    -0.01700
C2977       C  0.43367812  0.98879878  0.13360711     0.08200
C2978       C  0.43061200  0.01972812  0.14477465    -0.01900
Br2979     Br  0.39029187  0.04096476  0.14160694    -0.00400
Br2980     Br  0.45205005  0.07541001  0.17841632    -0.00500
Br2981     Br  0.47053193  0.93360014  0.11424383    -0.00500
Br2982     Br  0.53164000  0.97120913  0.14523532    -0.00500
C2983       C  0.46999206  0.03906125  0.30780822    -0.01600
C2984       C  0.45977207  0.02724153  0.27827252     0.08100
C2985       C  0.42674144  0.02318087  0.27249867    -0.01700
C2986       C  0.40448233  0.03605074  0.29351798    -0.01700
C2987       C  0.41518028  0.05237359  0.32033244     0.08200
C2988       C  0.44732879  0.05032592  0.32927021    -0.01900
Br2989     Br  0.45994361  0.06119203  0.37135139    -0.00400
Br2990     Br  0.51467571  0.04288849  0.31856460    -0.00500
Br2991     Br  0.35939486  0.03316851  0.28503800    -0.00500
Br2992     Br  0.41142570  0.00008325  0.23623256    -0.00500
C2993       C  0.45805739  0.69702745  0.39745085    -0.01600
C2994       C  0.42596735  0.68757134  0.39465879     0.08100
C2995       C  0.40159782  0.70573375  0.40851884    -0.01700
C2996       C  0.40910310  0.73396480  0.42392816    -0.01700
C2997       C  0.44105877  0.74367012  0.42644611     0.08200
C2998       C  0.46565464  0.72506534  0.41346356    -0.01900
Br2999     Br  0.50973923  0.73784966  0.41750616    -0.00400
Br3000     Br  0.49136416  0.67183833  0.37889583    -0.00500
Br3001     Br  0.37524589  0.76070786  0.43891740    -0.00500
Br3002     Br  0.35762957  0.69229752  0.40571272    -0.00500
C3003       C  0.23682093  0.80564274  0.33473748    -0.01600
C3004       C  0.23522273  0.81392628  0.30287434     0.08100
C3005       C  0.21353394  0.83660983  0.29253156    -0.01700
C3006       C  0.19180445  0.84957805  0.31389250    -0.01700
C3007       C  0.19103276  0.83874152  0.34511701     0.08200
C3008       C  0.21460566  0.81797356  0.35597753    -0.01900
Br3009     Br  0.21647548  0.80573824  0.39953778    -0.00400
Br3010     Br  0.26993029  0.77789788  0.34930512    -0.00500
Br3011     Br  0.16226801  0.88131961  0.30029345    -0.00500
Br3012     Br  0.21245047  0.84858157  0.24886279    -0.00500
C3013       C  0.30876938  0.70955460  0.23455292    -0.01600
C3014       C  0.28575092  0.72272033  0.25496223     0.08100
C3015       C  0.27573867  0.70521228  0.28105854    -0.01700
C3016       C  0.29595169  0.68223519  0.29272776    -0.01700
C3017       C  0.32226432  0.67201977  0.27490066     0.08200
C3018       C  0.32666252  0.68354953  0.24430319    -0.01900
Br3019     Br  0.35744941  0.66463220  0.21663152    -0.00400
Br3020     Br  0.31518856  0.72700551  0.19346847    -0.00500
Br3021     Br  0.28920865  0.66739940  0.33460834    -0.00500
Br3022     Br  0.23460622  0.71143787  0.30068210    -0.00500
C3023       C  0.32068259  0.85948081  0.23238066    -0.01600
C3024       C  0.32932239  0.82810912  0.23853190     0.08100
C3025       C  0.35601063  0.81519889  0.22302489    -0.01700
C3026       C  0.36784993  0.82978823  0.19609745    -0.01700
C3027       C  0.35342323  0.85741640  0.18566100     0.08200
C3028       C  0.33114197  0.87326748  0.20462006    -0.01900
Br3029     Br  0.31260243  0.91232194  0.19113054    -0.00400
Br3030     Br  0.29585026  0.88458186  0.26147072    -0.00500
Br3031     Br  0.40256388  0.81148180  0.17267798    -0.00500
Br3032     Br  0.37693400  0.77853240  0.23925507    -0.00500
C3033       C  0.87758257  0.97191964  0.70191004    -0.01600
C3034       C  0.88611939  0.95430846  0.67492555     0.08100
C3035       C  0.91882018  0.95022059  0.66754687    -0.01700
C3036       C  0.94227587  0.96555244  0.68541707    -0.01700
C3037       C  0.93385019  0.98178745  0.71298036     0.08200
C3038       C  0.90152822  0.98506059  0.72132962    -0.01900
Br3039     Br  0.89027177  0.00712763  0.75953686    -0.00400
Br3040     Br  0.83329866  0.97805004  0.71231931    -0.00500
Br3041     Br  0.98606223  0.96571907  0.67128936    -0.00500
Br3042     Br  0.93255234  0.92155970  0.63482270    -0.00500
C3043       C  0.01963374  0.95860898  0.82169942    -0.01600
C3044       C  0.01606802  0.95328073  0.78897977     0.08100
C3045       C  0.03033910  0.92688502  0.77473625    -0.01700
C3046       C  0.04967283  0.90733015  0.79279675    -0.01700
C3047       C  0.05719515  0.91568469  0.82400996     0.08200
C3048       C  0.04127872  0.94059960  0.83892187    -0.01900
Br3049     Br  0.04982960  0.95035230  0.88251560    -0.00400
Br3050     Br  0.99424925  0.98985506  0.84321514    -0.00500
Br3051     Br  0.06642190  0.86930511  0.77480798    -0.00500
Br3052     Br  0.02645857  0.91874591  0.73019126    -0.00500
C3053       C  0.97068458  0.08543418  0.76493785    -0.01600
C3054       C  0.99433908  0.06309361  0.77159342     0.08100
C3055       C  0.01436004  0.06865774  0.79790209    -0.01700
C3056       C  0.00345041  0.08768885  0.82270085    -0.01700
C3057       C  0.97496770  0.10446326  0.81898397     0.08200
C3058       C  0.96058262  0.10591291  0.78896514    -0.01900
Br3059     Br  0.92511537  0.13362757  0.78173682    -0.00400
Br3060     Br  0.95262625  0.08845684  0.72330718    -0.00500
Br3061     Br  0.02598221  0.08822208  0.86213767    -0.00500
Br3062     Br  0.05643440  0.05053387  0.80003418    -0.00500
C3063       C  0.89292683  0.71428143  0.94474344    -0.01600
C3064       C  0.91609967  0.73551287  0.93374222     0.08100
C3065       C  0.92064080  0.73886051  0.90101165    -0.01700
C3066       C  0.90752800  0.71664337  0.88013149    -0.01700
C3067       C  0.88879381  0.69209000  0.89214254     0.08200
C3068       C  0.87864478  0.69306521  0.92365170    -0.01900
Br3069     Br  0.84798500  0.66264368  0.93836964    -0.00400
Br3070     Br  0.88360171  0.71049791  0.98871393    -0.00500
Br3071     Br  0.91821365  0.71807761  0.83598937    -0.00500
Br3072     Br  0.94658403  0.77263557  0.88500832    -0.00500
C3073       C  0.96205880  0.82876089  0.02599378    -0.01600
C3074       C  0.94859529  0.79836041  0.02641798     0.08100
C3075       C  0.92773929  0.78993575  0.05096408    -0.01700
C3076       C  0.91958300  0.81209036  0.07416277    -0.01700
C3077       C  0.93475448  0.84158957  0.07471303     0.08200
C3078       C  0.95650577  0.84965037  0.05101173    -0.01900
Br3079     Br  0.97804921  0.88966655  0.05255236    -0.00400
Br3080     Br  0.98550162  0.84336898  0.98984106    -0.00500
Br3081     Br  0.88663735  0.80257553  0.10448191    -0.00500
Br3082     Br  0.91163996  0.74791202  0.05442693    -0.00500
C3083       C  0.03580962  0.74248510  0.92411468    -0.01600
C3084       C  0.02843224  0.75753392  0.95319317     0.08100
C3085       C  0.05018825  0.78016460  0.96513872    -0.01700
C3086       C  0.07249785  0.79369114  0.94484157    -0.01700
C3087       C  0.07600893  0.78217410  0.91391415     0.08200
C3088       C  0.05920502  0.75528741  0.90420703    -0.01900
Br3089     Br  0.06672167  0.73761474  0.86296108    -0.00400
Br3090     Br  0.01524536  0.70370165  0.91181967    -0.00500
Br3091     Br  0.09549595  0.83076472  0.95806340    -0.00500
Br3092     Br  0.05145924  0.79218124  0.00912527    -0.00500
C3093       C  0.78759733  0.05525751  0.91484505    -0.01600
C3094       C  0.79865971  0.03201293  0.93549141     0.08100
C3095       C  0.83181537  0.02732483  0.93928395    -0.01700
C3096       C  0.85303545  0.05037463  0.92950694    -0.01700
C3097       C  0.84156367  0.07523167  0.91156790     0.08200
C3098       C  0.80975241  0.07570834  0.90130448    -0.01900
Br3099     Br  0.79722393  0.10481440  0.86933295    -0.00400
Br3100     Br  0.74280936  0.06192421  0.90757345    -0.00500
Br3101     Br  0.89695608  0.04946098  0.94323103    -0.00500
Br3102     Br  0.84839573  0.99000460  0.95879984    -0.00500
C3103       C  0.69006501  0.94902826  0.98566693    -0.01600
C3104       C  0.70542431  0.96611272  0.96176188     0.08100
C3105       C  0.70060228  0.95658631  0.93000410    -0.01700
C3106       C  0.68605153  0.92744386  0.92336836    -0.01700
C3107       C  0.67806319  0.90723215  0.94832436     0.08200
C3108       C  0.67962598  0.91857057  0.97940323    -0.01900
Br3109     Br  0.67071295  0.89152066  0.01400324    -0.00400
Br3110     Br  0.68239763  0.96708138  0.02700851    -0.00500
Br3111     Br  0.67640116  0.91601759  0.88024097    -0.00500
Br3112     Br  0.71186651  0.98310946  0.89517426    -0.00500
C3113       C  0.81080772  0.00919782  0.05251012    -0.01600
C3114       C  0.78905225  0.98793746  0.03828629     0.08100
C3115       C  0.78810254  0.95647820  0.04853877    -0.01700
C3116       C  0.80770107  0.94717691  0.07337707    -0.01700
C3117       C  0.83209739  0.96735762  0.08447174     0.08200
C3118       C  0.83404934  0.99822522  0.07338471    -0.01900
Br3119     Br  0.86992064  0.02464634  0.08447552    -0.00400
Br3120     Br  0.80909276  0.05345412  0.04363270    -0.00500
Br3121     Br  0.80338890  0.90513102  0.08943983    -0.00500
Br3122     Br  0.76467697  0.92398716  0.02614478    -0.00500
C3123       C  0.83616620  0.66730196  0.73077924    -0.01600
C3124       C  0.82415789  0.64267535  0.74900141     0.08100
C3125       C  0.79111978  0.63622509  0.74960842    -0.01700
C3126       C  0.77019457  0.65570946  0.73352686    -0.01700
C3127       C  0.78181116  0.68360199  0.72070364     0.08200
C3128       C  0.81488387  0.68879979  0.71782725    -0.01900
Br3129     Br  0.83112783  0.72829579  0.70292119    -0.00400
Br3130     Br  0.88150525  0.67468325  0.72864724    -0.00500
Br3131     Br  0.72488663  0.64747976  0.73385636    -0.00500
Br3132     Br  0.77348091  0.60596507  0.77823248    -0.00500
C3133       C  0.73026823  0.79507701  0.78916307    -0.01600
C3134       C  0.72860632  0.76220400  0.78505018     0.08100
C3135       C  0.71649926  0.74357716  0.80972626    -0.01700
C3136       C  0.70065182  0.75812043  0.83505106    -0.01700
C3137       C  0.69672682  0.79084216  0.83534712     0.08200
C3138       C  0.71338011  0.80944980  0.81369873    -0.01900
Br3139     Br  0.71083112  0.85458842  0.81583550    -0.00400
Br3140     Br  0.75610383  0.82067924  0.76172895    -0.00500
Br3141     Br  0.68093860  0.73338444  0.86752123    -0.00500
Br3142     Br  0.71941564  0.69847031  0.80875832    -0.00500
C3143       C  0.72315778  0.80654490  0.67732186    -0.01600
C3144       C  0.74056128  0.77858807  0.67337812     0.08100
C3145       C  0.76750217  0.77872322  0.65358091    -0.01700
C3146       C  0.78176351  0.80727829  0.64571325    -0.01700
C3147       C  0.76666167  0.83583030  0.65371728     0.08200
C3148       C  0.73677286  0.83526481  0.66869499    -0.01900
Br3149     Br  0.71551937  0.87355429  0.67974483    -0.00400
Br3150     Br  0.68042445  0.80509502  0.69412744    -0.00500
Br3151     Br  0.82302056  0.80686271  0.62546828    -0.00500
Br3152     Br  0.78360326  0.74051760  0.63483011    -0.00500
loop_ 
_geom_bond_atom_site_label_1 
_geom_bond_atom_site_label_2 
_geom_bond_distance 
_geom_bond_site_symmetry_2 
_ccdc_geom_bond_type 
O1           C17   1.291       .  A
O1           Zn7   2.144       .  S
C2           O18   1.288       .  A
C2           O15   1.284       .  A
C2          C510   1.537       .  S
O3           C16   1.280       .  A
O3          Cd10   2.138       .  S
O4           C22   1.302       .  A
O4          Cd13   2.205       .  S
O5           C19   1.288       .  A
O5           Cd9   2.180       .  S
O6           C17   1.287       .  A
O6           Cd9   2.185       .  S
Zn7          O18   2.152       .  S
Zn7          O20   2.145       .  S
Zn7          O12   1.999       .  S
O8           C19   1.280       .  A
O8          Cd13   2.100       .  S
Cd9          O11   2.206       .  S
Cd9          O12   2.066       .  S
Cd10         O14   2.162       .  S
Cd10         O23   2.165       .  S
Cd10         O12   2.148       .  S
O11          C21   1.305       .  A
O12         Cd13   2.030       .  S
Cd13         O15   2.153       .  S
O14          C21   1.283       .  A
C16          O20   1.299       .  A
C16        C1013   1.539       .  S
C17        C1743   1.542       .  S
C19         C870   1.519       .  S
C21        C1373   1.547       .  S
C22          O23   1.282       .  A
C22        C1560   1.561       .  S
O24          C40   1.275       .  A
O24         Zn30   2.014       .  S
C25          O41   1.276       .  A
C25          O38   1.285       .  A
C25        C1742   1.534       .  S
O26          C39   1.283       .  A
O26         Cd33   2.173       .  S
O27          C45   1.302       .  A
O27         Cd36   2.182       .  S
O28          C42   1.287       .  A
O28         Cd32   2.148       .  S
O29          C40   1.284       .  A
O29         Cd32   2.192       .  S
Zn30         O41   2.013       .  S
Zn30         O43   2.101       .  S
Zn30         O35   1.925       .  S
O31          C42   1.285       .  A
O31         Cd36   2.157       .  S
Cd32         O34   2.195       .  S
Cd32         O35   2.057       .  S
Cd33         O37   2.161       .  S
Cd33         O46   2.130       .  S
Cd33         O35   2.131       .  S
O34          C44   1.300       .  A
O35         Cd36   2.060       .  S
Cd36         O38   2.220       .  S
O37          C44   1.283       .  A
C39          O43   1.285       .  A
C39        C1099   1.549       .  S
C40         C904   1.523       .  S
C42         C665   1.522       .  S
C44        C2080   1.561       .  S
C45          O46   1.280       .  A
C45        C1299   1.526       .  S
C47        C3127   1.452       .  S
C47          N48   1.353       .  A
C47          N52   1.355       .  A
N48          C49   1.355       .  A
C49        C3144   1.482       .  S
C49          N50   1.356       .  A
N50          C51   1.353       .  A
C51        C3134   1.479       .  S
C51          N52   1.348       .  A
C53        C3104   1.488       .  S
C53          N54   1.360   1_565  A
C53          N58   1.360   1_556  A
N54          C55   1.357       .  A
C55        C3094   1.464       .  S
C55          N56   1.350       .  A
N56          C57   1.342   1_546  A
C57        C3114   1.477       .  S
C57          N58   1.348       .  A
C59        C3074   1.473       .  S
C59          N60   1.359   1_554  A
C59          N64   1.359   1_554  A
N60          C61   1.358       .  A
C61        C3064   1.474       .  S
C61          N62   1.355       .  A
N62          C63   1.352       .  A
C63        C3084   1.498   1_655  S
C63          N64   1.355       .  A
C65        C3037   1.467       .  S
C65          N66   1.360   1_565  A
C65          N70   1.357       .  A
N66          C67   1.362       .  A
C67        C3054   1.491       .  S
C67          N68   1.354   1_655  A
N68          C69   1.351   1_445  A
C69        C3044   1.470   1_655  S
C69          N70   1.352       .  A
N71          C76   1.345       .  A
N71          C75   1.350       .  A
N71         H103   1.037       .  S
N72          C79   1.352       .  A
N72          C80   1.345       .  A
N73          C78   1.370       .  A
N73          C77   1.376       .  A
N73         H104   1.036       .  S
N74          C81   1.358       .  A
N74          C82   1.357       .  A
C75          C83   1.387       .  A
C75          C91   1.407       .  A
C76          C92   1.403       .  A
C76          C84   1.387       .  A
C77          C85   1.390       .  A
C77          C94   1.464       .  A
C78          C93   1.462       .  A
C78          C86   1.390       .  A
C79          C91   1.400       .  A
C79          C87   1.380       .  A
C80          C94   1.415       .  A
C80          C88   1.387       .  A
C81          C89   1.382       .  A
C81          C92   1.417       .  A
C82          C90   1.390       .  A
C82          C93   1.428       .  A
C83          C84   1.372       .  A
C83          H95   1.083       .  S
C84          H96   1.082       .  S
C85          C86   1.407       .  A
C85          H97   1.082       .  S
C86          H98   1.082       .  S
C87          C88   1.368       .  A
C87          H99   1.082       .  S
C88         H100   1.077       .  S
C89          C90   1.363       .  A
C89         H101   1.082       .  S
C90         H102   1.081       .  S
C91        C3087   1.482       .  S
C92        C3047   1.480       .  S
C93         C408   1.537       .  S
C94         C359   1.547       .  S
N105        C110   1.349       .  A
N105        C109   1.349       .  A
N105        H137   1.035       .  S
N106        C113   1.354       .  A
N106        C114   1.350       .  A
N107        C112   1.377       .  A
N107        C111   1.377       .  A
N107        H138   1.036       .  S
N108        C115   1.354       .  A
N108        C116   1.350       .  A
C109        C117   1.389       .  A
C109        C125   1.411       .  A
C110        C126   1.405       .  A
C110        C118   1.386       .  A
C111        C119   1.390       .  A
C111        C128   1.469       .  A
C112        C127   1.468       .  A
C112        C120   1.389       .  A
C113        C125   1.408       .  A
C113        C121   1.381       .  A
C114        C128   1.419       .  A
C114        C122   1.394       .  A
C115        C123   1.379       .  A
C115        C126   1.405       .  A
C116        C124   1.397       .  A
C116        C127   1.423       .  A
C117        C118   1.364       .  A
C117        H129   1.082       .  S
C118        H130   1.082       .  S
C119        C120   1.405       .  A
C119        H131   1.082       .  S
C120        H132   1.082       .  S
C121        C122   1.356       .  A
C121        H133   1.080   1_565  S
C122        H134   1.080   1_565  S
C123        C124   1.358       .  A
C123        H135   1.083       .  S
C124        H136   1.081       .  S
C125       C3117   1.486       .  S
C126       C3077   1.481       .  S
C127        C454   1.530       .  S
C128        C711   1.532       .  S
N139        C144   1.345       .  A
N139        C143   1.346       .  A
N139        H171   1.045       .  S
N140        C147   1.349       .  A
N140        C148   1.345       .  A
N141        C146   1.368       .  A
N141        C145   1.367       .  A
N141        H172   1.042       .  S
N142        C149   1.348       .  A
N142        C150   1.344       .  A
C143        C151   1.387       .  A
C143        C159   1.408       .  A
C144        C160   1.407       .  A
C144        C152   1.387       .  A
C145        C153   1.390       .  A
C145        C162   1.456       .  A
C146        C161   1.456       .  A
C146        C154   1.390       .  A
C147        C159   1.401       .  A
C147        C155   1.383       .  A
C148        C162   1.409       .  A
C148        C156   1.381       .  A
C149        C157   1.383       .  A
C149        C160   1.400       .  A
C150        C158   1.387       .  A
C150        C161   1.410       .  A
C151        C152   1.389       .  A
C151        H163   1.082       .  S
C152        H164   1.082       .  S
C153        C154   1.411       .  A
C153        H165   1.082       .  S
C154        H166   1.082       .  S
C155        C156   1.374       .  A
C155        H167   1.083   1_565  S
C156        H168   1.076       .  S
C157        C158   1.371       .  A
C157        H169   1.082       .  S
C158        H170   1.080       .  S
C159       C3034   1.491       .  S
C160       C3147   1.482       .  S
C161        C434   1.534       .  S
C162       C1256   1.539       .  S
N173        C178   1.344       .  A
N173        C177   1.347       .  A
N173        H205   1.043       .  S
N174        C181   1.344       .  A
N174        C182   1.336       .  A
N175        C180   1.366       .  A
N175        C179   1.369       .  A
N175        H206   1.040       .  S
N176        C183   1.352       .  A
N176        C184   1.355       .  A
C177        C185   1.389       .  A
C177        C193   1.407       .  A
C178        C194   1.397       .  A
C178        C186   1.386       .  A
C179        C187   1.389       .  A
C179        C196   1.453       .  A
C180        C195   1.453       .  A
C180        C188   1.389       .  A
C181        C193   1.394       .  A
C181        C189   1.383       .  A
C182        C196   1.402       .  A
C182        C190   1.395       .  A
C183        C191   1.384       .  A
C183        C194   1.412       .  A
C184        C192   1.389       .  A
C184        C195   1.420       .  A
C185        C186   1.376       .  A
C185        H197   1.083       .  S
C186        H198   1.082       .  S
C187        C188   1.407       .  A
C187        H199   1.082       .  S
C188        H200   1.082       .  S
C189        C190   1.370       .  A
C189        H201   1.083       .  S
C190        H202   1.083       .  S
C191        C192   1.370       .  A
C191        H203   1.083       .  S
C192        H204   1.081       .  S
C193       C3124   1.471       .  S
C194       C3067   1.479       .  S
C195        C368   1.529       .  S
C196       C1233   1.520       .  S
N207        C212   1.338       .  A
N207        C211   1.348       .  A
N207        H239   1.034       .  S
N208        C215   1.342       .  A
N208        C216   1.343       .  A
N209        C214   1.360       .  A
N209        C213   1.368       .  A
N209        H240   1.034       .  S
N210        C217   1.359       .  A
N210        C218   1.358       .  A
C211        C219   1.380       .  A
C211        C227   1.403       .  A
C212        C228   1.414       .  A
C212        C220   1.394       .  A
C213        C221   1.387       .  A
C213        C230   1.451       .  A
C214        C229   1.453       .  A
C214        C222   1.392       .  A
C215        C227   1.392       .  A
C215        C223   1.383       .  A
C216        C230   1.389       .  A
C216        C224   1.384       .  A
C217        C225   1.387       .  A
C217        C228   1.430       .  A
C218        C226   1.390       .  A
C218        C229   1.433       .  A
C219        C220   1.384       .  A
C219        H231   1.082       .  S
C220        H232   1.082       .  S
C221        C222   1.406       .  A
C221        H233   1.081       .  S
C222        H234   1.082       .  S
C223        C224   1.367       .  A
C223        H235   1.079       .  S
C224        H236   1.083       .  S
C225        C226   1.364       .  A
C225        H237   1.081       .  S
C226        H238   1.082       .  S
C227       C3107   1.481       .  S
C228       C3137   1.480       .  S
C229        C337   1.516       .  S
C230        C474   1.516       .  S
N241        C246   1.339       .  A
N241        C245   1.353       .  A
N241        H273   1.041       .  S
N242        C249   1.343       .  A
N242        C250   1.334       .  A
N243        C248   1.368       .  A
N243        C247   1.371       .  A
N243        H274   1.040       .  S
N244        C251   1.352       .  A
N244        C252   1.357       .  A
C245        C253   1.385       .  A
C245        C261   1.407       .  A
C246        C262   1.400       .  A
C246        C254   1.389       .  A
C247        C255   1.390       .  A
C247        C264   1.459       .  A
C248        C263   1.461       .  A
C248        C256   1.391       .  A
C249        C261   1.392       .  A
C249        C257   1.377       .  A
C250        C264   1.398       .  A
C250        C258   1.391       .  A
C251        C259   1.385       .  A
C251        C262   1.413       .  A
C252        C260   1.391       .  A
C252        C263   1.420       .  A
C253        C254   1.374       .  A
C253        H265   1.082       .  S
C254        H266   1.082       .  S
C255        C256   1.411       .  A
C255        H267   1.082       .  S
C256        H268   1.082       .  S
C257        C258   1.373       .  A
C257        H269   1.080   1_655  S
C258        H270   1.081   1_655  S
C259        C260   1.366       .  A
C259        H271   1.083       .  S
C260        H272   1.082       .  S
C261       C3057   1.480       .  S
C262       C3097   1.464       .  S
C263        C749   1.535       .  S
C264       C1963   1.535       .  S
O275        C291   1.283       .  A
O275       Zn281   2.126       .  S
C276        O292   1.290       .  A
C276        O289   1.293       .  A
C276       C1794   1.545       .  S
O277        C290   1.278       .  A
O277       Cd284   2.113       .  S
O278        C296   1.307       .  A
O278       Cd287   2.222       .  S
O279        C293   1.288       .  A
O279       Cd283   2.157       .  S
O280        C291   1.283       .  A
O280       Cd283   2.142       .  S
Zn281       O292   2.129       .  S
Zn281       O294   2.142       .  S
Zn281       O286   1.997       .  S
O282        C293   1.292       .  A
O282       Cd287   2.194       .  S
Cd283       O285   2.157       .  S
Cd283       O286   2.030       .  S
Cd284       O288   2.143       .  S
Cd284       O297   2.123       .  S
Cd284       O286   2.142       .  S
O285        C295   1.296       .  A
O286       Cd287   2.058       .  S
Cd287       O289   2.206       .  S
O288        C295   1.275       .  A
C290        O294   1.298       .  A
C290       C1993   1.526       .  S
C291        C905   1.525       .  S
C293        C511   1.537       .  S
C295       C1064   1.543       .  S
C296        O297   1.277       .  A
C296       C1514   1.542       .  S
O298        C314   1.288       .  A
O298       Zn304   2.140       .  S
C299        O315   1.283       .  A
C299        O312   1.284       .  A
C299       C2039   1.518       .  S
O300        C313   1.281       .  A
O300       Cd307   2.151       .  S
O301        C319   1.303       .  A
O301       Cd310   2.206       .  S
O302        C316   1.281       .  A
O302       Cd306   2.137       .  S
O303        C314   1.284       .  A
O303       Cd306   2.161       .  S
Zn304       O315   2.100       .  S
Zn304       O317   2.126       .  S
Zn304       O309   1.992       .  S
O305        C316   1.286       .  A
O305       Cd310   2.136       .  S
Cd306       O308   2.155       .  S
Cd306       O309   2.039       .  S
Cd307       O311   2.157       .  S
Cd307       O320   2.167       .  S
Cd307       O309   2.149       .  S
O308        C318   1.294       .  A
O309       Cd310   2.030       .  S
Cd310       O312   2.143       .  S
O311        C318   1.285       .  A
C313        O317   1.298       .  A
C313        C664   1.537       .  S
C314       C1332   1.534       .  S
C316       C1601   1.517       .  S
C318        C871   1.541       .  S
C319        O320   1.279       .  A
C319       C1795   1.557       .  S
O321        C337   1.280       .  A
O321       Zn327   2.086       .  S
C322        O338   1.284       .  A
C322        O335   1.281       .  A
C322        C803   1.511       .  S
O323        C336   1.277       .  A
O323       Cd330   2.135       .  S
O324        C342   1.304       .  A
O324       Cd333   2.187       .  S
O325        C339   1.289       .  A
O325       Cd329   2.168       .  S
O326        C337   1.281       .  A
O326       Cd329   2.142       .  S
Zn327       O338   2.087       .  S
Zn327       O340   2.088       .  S
Zn327       O332   1.963       .  S
O328        C339   1.287       .  A
O328       Cd333   2.162       .  S
Cd329       O331   2.165       .  S
Cd329       O332   2.031       .  S
Cd330       O334   2.137       .  S
Cd330       O343   2.166       .  S
Cd330       O332   2.155       .  S
O331        C341   1.299       .  A
O332       Cd333   2.038       .  S
Cd333       O335   2.139       .  S
O334        C341   1.278       .  A
C336        O340   1.292       .  A
C336       C1132   1.527       .  S
C339        C631   1.529       .  S
C341       C1406   1.531       .  S
C342        O343   1.281       .  A
C342       C1561   1.554       .  S
O344        C360   1.277       .  A
O344       Zn350   2.065       .  S
C345        O361   1.273       .  A
C345        O358   1.283       .  A
C345       C2147   1.523       .  S
O346        C359   1.283       .  A
O346       Cd353   2.168       .  S
O347        C365   1.299       .  A
O347       Cd356   2.199       .  S
O348        C362   1.286       .  A
O348       Cd352   2.172   1_554  S
O349        C360   1.283       .  A
O349       Cd352   2.160       .  S
Zn350       O361   2.017   1_556  S
Zn350       O363   2.137       .  S
Zn350       O355   1.943   1_556  S
O351        C362   1.281       .  A
O351       Cd356   2.103       .  S
Cd352       O354   2.187       .  S
Cd352       O355   2.052   1_556  S
Cd353       O357   2.141       .  S
Cd353       O366   2.169   1_556  S
Cd353       O355   2.134   1_556  S
O354        C364   1.302       .  A
O355       Cd356   2.046       .  S
Cd356       O358   2.185       .  S
O357        C364   1.282       .  A
C359        O363   1.299       .  A
C360       C1703   1.515       .  S
C362       C1065   1.521       .  S
C364        C802   1.536       .  S
C365        O366   1.284       .  A
C365        C584   1.560       .  S
O367        C383   1.284       .  A
O367       Zn373   2.099   1_455  S
C368        O384   1.282       .  A
C368        O381   1.290       .  A
O369        C382   1.273   1_554  A
O369       Cd376   2.115       .  S
O370        C388   1.307       .  A
O370       Cd379   2.218       .  S
O371        C385   1.282       .  A
O371       Cd375   2.129       .  S
O372        C383   1.279       .  A
O372       Cd375   2.141   1_456  S
Zn373       O384   2.081       .  S
Zn373       O386   2.148   1_655  S
Zn373       O378   1.969       .  S
O374        C385   1.291       .  A
O374       Cd379   2.173       .  S
Cd375       O377   2.158   1_655  S
Cd375       O378   2.043   1_554  S
Cd376       O380   2.107       .  S
Cd376       O389   2.118   1_455  S
Cd376       O378   2.132   1_454  S
O377        C387   1.297       .  A
O378       Cd379   2.042   1_556  S
Cd379       O381   2.194   1_554  S
O380        C387   1.274       .  A
C382        O386   1.300       .  A
C382       C1702   1.531       .  S
C383        C973   1.518       .  S
C385       C1862   1.517       .  S
C387       C1992   1.517       .  S
C388        O389   1.276       .  A
C388       C1167   1.540       .  S
O390        C406   1.288       .  A
O390       Zn396   2.140       .  S
C391        O407   1.290       .  A
C391        O404   1.289       .  A
C391        C630   1.545       .  S
O392        C405   1.276       .  A
O392       Cd399   2.138       .  S
O393        C411   1.302       .  A
O393       Cd402   2.182       .  S
O394        C408   1.288       .  A
O394       Cd398   2.173   1_565  S
O395        C406   1.286       .  A
O395       Cd398   2.145       .  S
Zn396       O407   2.144   1_545  S
Zn396       O409   2.195       .  S
Zn396       O401   2.002       .  S
O397        C408   1.285       .  A
O397       Cd402   2.162       .  S
Cd398       O400   2.214       .  S
Cd398       O401   2.046       .  S
Cd399       O403   2.162       .  S
Cd399       O412   2.130       .  S
Cd399       O401   2.154       .  S
O400        C410   1.304       .  A
O401       Cd402   2.052   1_545  S
Cd402       O404   2.193       .  S
O403        C410   1.281       .  A
C405        O409   1.307       .  A
C405       C1333   1.548       .  S
C406        C938   1.528       .  S
C410       C2114   1.562       .  S
C411        O412   1.279   1_565  A
C411       C1669   1.528       .  S
O413        C429   1.277       .  A
O413       Zn419   2.037       .  S
C414        O430   1.277       .  A
C414        O427   1.283       .  A
C414       C1407   1.514       .  S
O415        C428   1.282       .  A
O415       Cd422   2.178       .  S
O416        C434   1.304       .  A
O416       Cd425   2.201       .  S
O417        C431   1.286       .  A
O417       Cd421   2.158       .  S
O418        C429   1.284       .  A
O418       Cd421   2.187       .  S
Zn419       O430   2.034       .  S
Zn419       O432   2.148       .  S
Zn419       O424   1.946       .  S
O420        C431   1.293       .  A
O420       Cd425   2.205       .  S
Cd421       O423   2.227       .  S
Cd421       O424   2.050       .  S
Cd422       O426   2.152       .  S
Cd422       O435   2.137       .  S
Cd422       O424   2.131       .  S
O423        C433   1.304       .  A
O424       Cd425   2.071       .  S
Cd425       O427   2.172       .  S
O426        C433   1.285       .  A
C428        O432   1.294       .  A
C428        C551   1.561       .  S
C429       C1012   1.529       .  S
C431       C1635   1.544       .  S
C433       C1896   1.559       .  S
C434        O435   1.281       .  A
O436        C452   1.284       .  A
O436       Zn442   2.110       .  S
C437        O453   1.276       .  A
C437        O450   1.286       .  A
C437       C1897   1.544       .  S
O438        C451   1.280       .  A
O438       Cd445   2.159       .  S
O439        C457   1.306       .  A
O439       Cd448   2.219       .  S
O440        C454   1.286       .  A
O440       Cd444   2.140   1_655  S
O441        C452   1.280       .  A
O441       Cd444   2.156       .  S
Zn442       O453   2.003   1_455  S
Zn442       O455   2.150       .  S
Zn442       O447   1.951   1_455  S
O443        C454   1.291       .  A
O443       Cd448   2.189       .  S
Cd444       O446   2.171       .  S
Cd444       O447   2.044   1_455  S
Cd445       O449   2.158       .  S
Cd445       O458   2.170   1_455  S
Cd445       O447   2.135   1_455  S
O446        C456   1.297       .  A
O447       Cd448   2.085       .  S
Cd448       O450   2.224       .  S
O449        C456   1.286       .  A
C451        O455   1.298       .  A
C451       C1515   1.543       .  S
C452        C698   1.528       .  S
C456       C2148   1.541       .  S
C457        O458   1.285       .  A
C457       C1166   1.562       .  S
O459        C475   1.279       .  A
O459       Zn465   2.056   1_545  S
C460        O476   1.281       .  A
C460        O473   1.287       .  A
C460       C1200   1.536       .  S
O461        C474   1.274       .  A
O461       Cd468   2.098       .  S
O462        C480   1.308       .  A
O462       Cd471   2.228       .  S
O463        C477   1.288       .  A
O463       Cd467   2.157   1_554  S
O464        C475   1.287       .  A
O464       Cd467   2.193       .  S
Zn465       O476   2.081   1_556  S
Zn465       O478   2.136       .  S
Zn465       O470   1.959       .  S
O466        C477   1.287       .  A
O466       Cd471   2.151   1_545  S
Cd467       O469   2.193       .  S
Cd467       O470   2.046   1_545  S
Cd468       O472   2.128       .  S
Cd468       O481   2.105       .  S
Cd468       O470   2.140       .  S
O469        C479   1.304       .  A
O470       Cd471   2.045   1_556  S
Cd471       O473   2.195       .  S
O472        C479   1.274   1_565  A
C474        O478   1.298       .  A
C475       C1474   1.530       .  S
C477       C2079   1.516       .  S
C479        C939   1.541       .  S
C480        O481   1.272   1_554  A
C480        C585   1.541       .  S
C482       C3024   1.475       .  S
C482        N483   1.358       .  A
C482        N487   1.346       .  A
N483        C484   1.358       .  A
C484       C3014   1.482       .  S
C484        N485   1.355       .  A
N485        C486   1.351       .  A
C486       C3004   1.450       .  S
C486        N487   1.344       .  A
N488        C493   1.347       .  A
N488        C492   1.350       .  A
N488        H520   1.029       .  S
N489        C496   1.358       .  A
N489        C497   1.352       .  A
N490        C495   1.378       .  A
N490        C494   1.377       .  A
N490        H521   1.034       .  S
N491        C498   1.356       .  A
N491        C499   1.353       .  A
C492        C500   1.387       .  A
C492        C508   1.411       .  A
C493        C509   1.414       .  A
C493        C501   1.389       .  A
C494        C502   1.389       .  A
C494        C511   1.470       .  A
C495        C510   1.472       .  A
C495        C503   1.389       .  A
C496        C508   1.412       .  A
C496        C504   1.379       .  A
C497        C511   1.427       .  A
C497        C505   1.392       .  A
C498        C506   1.383       .  A
C498        C509   1.415       .  A
C499        C507   1.393       .  A
C499        C510   1.425       .  A
C500        C501   1.373       .  A
C500        H512   1.083       .  S
C501        H513   1.083       .  S
C502        C503   1.405       .  A
C502        H514   1.082       .  S
C503        H515   1.082       .  S
C504        C505   1.356       .  A
C504        H516   1.083       .  S
C505        H517   1.080       .  S
C506        C507   1.363       .  A
C506        H518   1.082       .  S
C507        H519   1.081       .  S
C508       C3017   1.487       .  S
C509       C2994   1.486       .  S
C522       C2964   1.455       .  S
C522        N523   1.355   1_565  A
C522        N527   1.351   1_565  A
N523        C524   1.359       .  A
C524       C2974   1.486       .  S
C524        N525   1.358       .  A
N525        C526   1.353       .  A
C526       C2984   1.474       .  S
C526        N527   1.348       .  A
N528        C533   1.348       .  A
N528        C532   1.334       .  A
N528        H560   1.043       .  S
N529        C536   1.358       .  A
N529        C537   1.360       .  A
N530        C535   1.373       .  A
N530        C534   1.369       .  A
N530        H561   1.042       .  S
N531        C538   1.339       .  A
N531        C539   1.327       .  A
C532        C540   1.392       .  A
C532        C548   1.395       .  A
C533        C549   1.400       .  A
C533        C541   1.383       .  A
C534        C542   1.391       .  A
C534        C551   1.463       .  A
C535        C550   1.460       .  A
C535        C543   1.389       .  A
C536        C548   1.415       .  A
C536        C544   1.378       .  A
C537        C551   1.434       .  A
C537        C545   1.389       .  A
C538        C546   1.374       .  A
C538        C549   1.386       .  A
C539        C547   1.395       .  A
C539        C550   1.395       .  A
C540        C541   1.378       .  A
C540        H552   1.081       .  S
C541        H553   1.082       .  S
C542        C543   1.411       .  A
C542        H554   1.082       .  S
C543        H555   1.082       .  S
C544        C545   1.369       .  A
C544        H556   1.082       .  S
C545        H557   1.075       .  S
C546        C547   1.374       .  A
C546        H558   1.081       .  S
C547        H559   1.080       .  S
C548       C2954   1.472       .  S
C549       C2967   1.470       .  S
C550        C728   1.527       .  S
N562        C567   1.342       .  A
N562        C566   1.355       .  A
N562        H594   1.038       .  S
N563        C570   1.330       .  A
N563        C571   1.334       .  A
N564        C569   1.364       .  A
N564        C568   1.368       .  A
N564        H595   1.034       .  S
N565        C572   1.350       .  A
N565        C573   1.361       .  A
C566        C574   1.384       .  A
C566        C582   1.412       .  A
C567        C583   1.405       .  A
C567        C575   1.389       .  A
C568        C576   1.392   1_554  A
C568        C585   1.466       .  A
C569        C584   1.469       .  A
C569        C577   1.393       .  A
C570        C582   1.381       .  A
C570        C578   1.384       .  A
C571        C585   1.402       .  A
C571        C579   1.387       .  A
C572        C580   1.380       .  A
C572        C583   1.411       .  A
C573        C581   1.394       .  A
C573        C584   1.436       .  A
C574        C575   1.374       .  A
C574        H586   1.081       .  S
C575        H587   1.082       .  S
C576        C577   1.418   1_556  A
C576        H588   1.082       .  S
C577        H589   1.082   1_554  S
C578        C579   1.378       .  A
C578        H590   1.080       .  S
C579        H591   1.083       .  S
C580        C581   1.369       .  A
C580        H592   1.082       .  S
C581        H593   1.078       .  S
C582       C2977   1.480       .  S
C583       C3027   1.465       .  S
C596       C2947   1.482       .  S
C596        N597   1.363       .  A
C596        N601   1.356       .  A
N597        C598   1.354   1_565  A
C598       C2934   1.469       .  S
C598        N599   1.350       .  A
N599        C600   1.346   1_545  A
C600       C2924   1.454       .  S
C600        N601   1.358       .  A
C602       C2914   1.460       .  S
C602        N603   1.356       .  A
C602        N607   1.348       .  A
N603        C604   1.360       .  A
C604       C2997   1.466       .  S
C604        N605   1.355       .  A
N605        C606   1.354       .  A
C606       C2957   1.484       .  S
C606        N607   1.347       .  A
N608        C613   1.341       .  A
N608        C612   1.341       .  A
N608        H640   1.040       .  S
N609        C616   1.352       .  A
N609        C617   1.344       .  A
N610        C615   1.378       .  A
N610        C614   1.377       .  A
N610        H641   1.040       .  S
N611        C618   1.354       .  A
N611        C619   1.350       .  A
C612        C620   1.386       .  A
C612        C628   1.396       .  A
C613        C629   1.396       .  A
C613        C621   1.386       .  A
C614        C622   1.391       .  A
C614        C631   1.473       .  A
C615        C630   1.473       .  A
C615        C623   1.391       .  A
C616        C628   1.401       .  A
C616        C624   1.380       .  A
C617        C631   1.407       .  A
C617        C625   1.394       .  A
C618        C626   1.387       .  A
C618        C629   1.415       .  A
C619        C627   1.387       .  A
C619        C630   1.408       .  A
C620        C621   1.378       .  A
C620        H632   1.081       .  S
C621        H633   1.082       .  S
C622        C623   1.412       .  A
C622        H634   1.082       .  S
C623        H635   1.082       .  S
C624        C625   1.362       .  A
C624        H636   1.082       .  S
C625        H637   1.081       .  S
C626        C627   1.364       .  A
C626        H638   1.080       .  S
C627        H639   1.082       .  S
C628       C2917   1.474       .  S
C629       C2927   1.481       .  S
N642        C647   1.348       .  A
N642        C646   1.344       .  A
N642        H674   1.041       .  S
N643        C650   1.356       .  A
N643        C651   1.357       .  A
N644        C649   1.370       .  A
N644        C648   1.363       .  A
N644        H675   1.039       .  S
N645        C652   1.347       .  A
N645        C653   1.340       .  A
C646        C654   1.387       .  A
C646        C662   1.404       .  A
C647        C663   1.407       .  A
C647        C655   1.386       .  A
C648        C656   1.390       .  A
C648        C665   1.451       .  A
C649        C664   1.454       .  A
C649        C657   1.389       .  A
C650        C662   1.419       .  A
C650        C658   1.385       .  A
C651        C665   1.424       .  A
C651        C659   1.391       .  A
C652        C660   1.383       .  A
C652        C663   1.397       .  A
C653        C661   1.385       .  A
C653        C664   1.405       .  A
C654        C655   1.383       .  A
C654        H666   1.082       .  S
C655        H667   1.082       .  S
C656        C657   1.407       .  A
C656        H668   1.082       .  S
C657        H669   1.082       .  S
C658        C659   1.370       .  A
C658        H670   1.082       .  S
C659        H671   1.081       .  S
C660        C661   1.371       .  A
C660        H672   1.083       .  S
C661        H673   1.077       .  S
C662       C2987   1.481       .  S
C663       C2937   1.481       .  S
N676        C681   1.343       .  A
N676        C680   1.348       .  A
N676        H708   1.042       .  S
N677        C684   1.344       .  A
N677        C685   1.337       .  A
N678        C683   1.367       .  A
N678        C682   1.372       .  A
N678        H709   1.040       .  S
N679        C686   1.354       .  A
N679        C687   1.354       .  A
C680        C688   1.388       .  A
C680        C696   1.406       .  A
C681        C697   1.398       .  A
C681        C689   1.386       .  A
C682        C690   1.390       .  A
C682        C699   1.458       .  A
C683        C698   1.456       .  A
C683        C691   1.389       .  A
C684        C696   1.397       .  A
C684        C692   1.384       .  A
C685        C699   1.403       .  A
C685        C693   1.391       .  A
C686        C694   1.383       .  A
C686        C697   1.411       .  A
C687        C695   1.388       .  A
C687        C698   1.418       .  A
C688        C689   1.376       .  A
C688        H700   1.082       .  S
C689        H701   1.082       .  S
C690        C691   1.407       .  A
C690        H702   1.082   1_455  S
C691        H703   1.082   1_455  S
C692        C693   1.376       .  A
C692        H704   1.083       .  S
C693        H705   1.082       .  S
C694        C695   1.361       .  A
C694        H706   1.082       .  S
C695        H707   1.079       .  S
C696       C2944   1.479       .  S
C697       C3007   1.477       .  S
C699       C1250   1.535       .  S
O710        C726   1.286       .  A
O710       Zn716   2.125       .  S
C711        O727   1.288       .  A
C711        O724   1.281       .  A
O712        C725   1.282       .  A
O712       Cd719   2.153       .  S
O713        C731   1.301       .  A
O713       Cd722   2.182       .  S
O714        C728   1.289       .  A
O714       Cd718   2.194   1_565  S
O715        C726   1.285       .  A
O715       Cd718   2.134       .  S
Zn716       O727   2.148   1_545  S
Zn716       O729   2.161       .  S
Zn716       O721   2.000       .  S
O717        C728   1.278       .  A
O717       Cd722   2.097       .  S
Cd718       O720   2.223       .  S
Cd718       O721   2.056       .  S
Cd719       O723   2.155       .  S
Cd719       O732   2.139       .  S
Cd719       O721   2.131       .  S
O720        C730   1.302       .  A
O721       Cd722   2.021   1_545  S
Cd722       O724   2.138       .  S
O723        C730   1.283       .  A
C725        O729   1.301       .  A
C725       C2180   1.546       .  S
C726       C1930   1.522       .  S
C730       C1298   1.563       .  S
C731        O732   1.279   1_565  A
C731       C1201   1.534       .  S
O733        C749   1.294       .  A
O733       Zn739   2.160   1_556  S
C734        O750   1.287       .  A
C734        O747   1.288       .  A
C734       C1863   1.533       .  S
O735        C748   1.271       .  A
O735       Cd742   2.103       .  S
O736        C754   1.303       .  A
O736       Cd745   2.193       .  S
O737        C751   1.282       .  A
O737       Cd741   2.134       .  S
O738        C749   1.281       .  A
O738       Cd741   2.141       .  S
Zn739       O750   2.130       .  S
Zn739       O752   2.191       .  S
Zn739       O744   1.981       .  S
O740        C751   1.289       .  A
O740       Cd745   2.184   1_556  S
Cd741       O743   2.160       .  S
Cd741       O744   2.034   1_556  S
Cd742       O746   2.108       .  S
Cd742       O755   2.084       .  S
Cd742       O744   2.138       .  S
O743        C753   1.298       .  A
O744       Cd745   2.040       .  S
Cd745       O747   2.163       .  S
O746        C753   1.274   1_554  A
C748        O752   1.306       .  A
C748       C2181   1.537       .  S
C751        C836   1.527       .  S
C753       C1475   1.527       .  S
C754        O755   1.270       .  A
C754       C1098   1.518       .  S
C756       C2884   1.491       .  S
C756        N757   1.358       .  A
C756        N761   1.357       .  A
N757        C758   1.354       .  A
C758       C2897   1.460       .  S
C758        N759   1.352       .  A
N759        C760   1.348       .  A
C760       C2907   1.489       .  S
C760        N761   1.356       .  A
C762       C2857   1.477       .  S
C762        N763   1.347       .  A
C762        N767   1.359   1_556  A
N763        C764   1.356   1_556  A
C764       C2877   1.470       .  S
C764        N765   1.351       .  A
N765        C766   1.360       .  A
C766       C2864   1.493       .  S
C766        N767   1.360       .  A
C768       C2844   1.470       .  S
C768        N769   1.355       .  A
C768        N773   1.360       .  A
N769        C770   1.354       .  A
C770       C2834   1.452       .  S
C770        N771   1.347       .  A
N771        C772   1.351       .  A
C772       C2824   1.457       .  S
C772        N773   1.352       .  A
C774       C2804   1.476       .  S
C774        N775   1.359       .  A
C774        N779   1.354       .  A
N775        C776   1.363       .  A
C776       C2794   1.460       .  S
C776        N777   1.351       .  A
N777        C778   1.348       .  A
C778       C2817   1.483       .  S
C778        N779   1.348       .  A
N780        C785   1.343       .  A
N780        C784   1.354       .  A
N780        H812   1.033       .  S
N781        C788   1.347       .  A
N781        C789   1.342       .  A
N782        C787   1.370       .  A
N782        C786   1.368       .  A
N782        H813   1.037       .  S
N783        C790   1.351       .  A
N783        C791   1.349       .  A
C784        C792   1.387       .  A
C784        C800   1.413       .  A
C785        C801   1.405       .  A
C785        C793   1.386       .  A
C786        C794   1.389       .  A
C786        C803   1.454       .  A
C787        C802   1.457       .  A
C787        C795   1.389       .  A
C788        C800   1.411       .  A
C788        C796   1.387       .  A
C789        C803   1.404       .  A
C789        C797   1.390       .  A
C790        C798   1.380       .  A
C790        C801   1.401       .  A
C791        C799   1.389       .  A
C791        C802   1.422       .  A
C792        C793   1.372       .  A
C792        H804   1.082       .  S
C793        H805   1.083       .  S
C794        C795   1.405       .  A
C794        H806   1.082       .  S
C795        H807   1.082       .  S
C796        C797   1.365       .  A
C796        H808   1.082       .  S
C797        H809   1.082       .  S
C798        C799   1.363       .  A
C798        H810   1.081   1_556  S
C799        H811   1.080       .  S
C800       C2837   1.481       .  S
C801       C2797   1.480       .  S
N814        C819   1.337       .  A
N814        C818   1.344       .  A
N814        H846   1.041       .  S
N815        C822   1.344       .  A
N815        C823   1.340       .  A
N816        C821   1.369       .  A
N816        C820   1.377       .  A
N816        H847   1.040       .  S
N817        C824   1.359       .  A
N817        C825   1.353       .  A
C818        C826   1.386       .  A
C818        C834   1.399       .  A
C819        C835   1.392       .  A
C819        C827   1.385       .  A
C820        C828   1.390       .  A
C820        C837   1.466       .  A
C821        C836   1.461       .  A
C821        C829   1.390       .  A
C822        C834   1.398       .  A
C822        C830   1.384       .  A
C823        C837   1.399       .  A
C823        C831   1.389       .  A
C824        C832   1.381       .  A
C824        C835   1.414       .  A
C825        C833   1.390       .  A
C825        C836   1.422       .  A
C826        C827   1.381       .  A
C826        H838   1.082       .  S
C827        H839   1.082       .  S
C828        C829   1.410       .  A
C828        H840   1.081       .  S
C829        H841   1.082       .  S
C830        C831   1.373       .  A
C830        H842   1.082       .  S
C831        H843   1.083       .  S
C832        C833   1.356       .  A
C832        H844   1.079       .  S
C833        H845   1.081       .  S
C834       C2827   1.475       .  S
C835       C2854   1.479       .  S
C837       C1232   1.549       .  S
N848        C853   1.343       .  A
N848        C852   1.337       .  A
N848        H880   1.043       .  S
N849        C856   1.354       .  A
N849        C857   1.354       .  A
N850        C855   1.369       .  A
N850        C854   1.364       .  A
N850        H881   1.043       .  S
N851        C858   1.339       .  A
N851        C859   1.331       .  A
C852        C860   1.389       .  A
C852        C868   1.395       .  A
C853        C869   1.400       .  A
C853        C861   1.386       .  A
C854        C862   1.391       .  A
C854        C871   1.454       .  A
C855        C870   1.452       .  A
C855        C863   1.389       .  A
C856        C868   1.411       .  A
C856        C864   1.380       .  A
C857        C871   1.428       .  A
C857        C865   1.394       .  A
C858        C866   1.379       .  A
C858        C869   1.386       .  A
C859        C867   1.396       .  A
C859        C870   1.396       .  A
C860        C861   1.382       .  A
C860        H872   1.082       .  S
C861        H873   1.082       .  S
C862        C863   1.409       .  A
C862        H874   1.082       .  S
C863        H875   1.082       .  S
C864        C865   1.374       .  A
C864        H876   1.083       .  S
C865        H877   1.081       .  S
C866        C867   1.373       .  A
C866        H878   1.082       .  S
C867        H879   1.081       .  S
C868       C2894   1.480       .  S
C869       C2847   1.460       .  S
N882        C887   1.353       .  A
N882        C886   1.335       .  A
N882        H914   1.041       .  S
N883        C890   1.358       .  A
N883        C891   1.361       .  A
N884        C889   1.368       .  A
N884        C888   1.357       .  A
N884        H915   1.041       .  S
N885        C892   1.335       .  A
N885        C893   1.327       .  A
C886        C894   1.392       .  A
C886        C902   1.405       .  A
C887        C903   1.409       .  A
C887        C895   1.383       .  A
C888        C896   1.391       .  A
C888        C905   1.446       .  A
C889        C904   1.446       .  A
C889        C897   1.388       .  A
C890        C902   1.424       .  A
C890        C898   1.386       .  A
C891        C905   1.426       .  A
C891        C899   1.387       .  A
C892        C900   1.373       .  A
C892        C903   1.382       .  A
C893        C901   1.390       .  A
C893        C904   1.386       .  A
C894        C895   1.387       .  A
C894        H906   1.082       .  S
C895        H907   1.082       .  S
C896        C897   1.409       .  A
C896        H908   1.082       .  S
C897        H909   1.082       .  S
C898        C899   1.371       .  A
C898        H910   1.083       .  S
C899        H911   1.082       .  S
C900        C901   1.377       .  A
C900        H912   1.078       .  S
C901        H913   1.082       .  S
C902       C2814   1.473       .  S
C903       C2867   1.481       .  S
N916        C921   1.335       .  A
N916        C920   1.350       .  A
N916        H948   1.039       .  S
N917        C924   1.331       .  A
N917        C925   1.340       .  A
N918        C923   1.362       .  A
N918        C922   1.374       .  A
N918        H949   1.033       .  S
N919        C926   1.358       .  A
N919        C927   1.359       .  A
C920        C928   1.377       .  A
C920        C936   1.397       .  A
C921        C937   1.411       .  A
C921        C929   1.397       .  A
C922        C930   1.388   1_545  A
C922        C939   1.465       .  A
C923        C938   1.467       .  A
C923        C931   1.396   1_545  A
C924        C936   1.379       .  A
C924        C932   1.387       .  A
C925        C939   1.384       .  A
C925        C933   1.386       .  A
C926        C934   1.382       .  A
C926        C937   1.422       .  A
C927        C935   1.394       .  A
C927        C938   1.437       .  A
C928        C929   1.382       .  A
C928        H940   1.082       .  S
C929        H941   1.082       .  S
C930        C931   1.415       .  A
C930        H942   1.082       .  S
C931        H943   1.082       .  S
C932        C933   1.365       .  A
C932        H944   1.082       .  S
C933        H945   1.083       .  S
C934        C935   1.360       .  A
C934        H946   1.083       .  S
C935        H947   1.082       .  S
C936       C2874   1.493       .  S
C937       C2887   1.475       .  S
N950        C955   1.346       .  A
N950        C954   1.344       .  A
N950        H982   1.038       .  S
N951        C958   1.357       .  A
N951        C959   1.350       .  A
N952        C957   1.376       .  A
N952        C956   1.369       .  A
N952        H983   1.040       .  S
N953        C960   1.346       .  A
N953        C961   1.344       .  A
C954        C962   1.388       .  A
C954        C970   1.403       .  A
C955        C971   1.402       .  A
C955        C963   1.385       .  A
C956        C964   1.391   1_455  A
C956        C973   1.460       .  A
C957        C972   1.463       .  A
C957        C965   1.389       .  A
C958        C970   1.406       .  A
C958        C966   1.377       .  A
C959        C973   1.424       .  A
C959        C967   1.397       .  A
C960        C968   1.381       .  A
C960        C971   1.396       .  A
C961        C969   1.390       .  A
C961        C972   1.405       .  A
C962        C963   1.377       .  A
C962        H974   1.082       .  S
C963        H975   1.082       .  S
C964        C965   1.407   1_655  A
C964        H976   1.082       .  S
C965        H977   1.082   1_455  S
C966        C967   1.358       .  A
C966        H978   1.082       .  S
C967        H979   1.079       .  S
C968        C969   1.365       .  A
C968        H980   1.082       .  S
C969        H981   1.083       .  S
C970       C2807   1.480       .  S
C971       C2904   1.471       .  S
C972       C1962   1.543       .  S
C984       C2784   1.478       .  S
C984        N985   1.358       .  A
C984        N989   1.356       .  A
N985        C986   1.355       .  A
C986       C2764   1.459       .  S
C986        N987   1.352       .  A
N987        C988   1.352       .  A
C988       C2774   1.486       .  S
C988        N989   1.353       .  A
N990        C995   1.343       .  A
N990        C994   1.334       .  A
N990       H1022   1.044       .  S
N991        C998   1.345       .  A
N991        C999   1.348       .  A
N992        C997   1.368       .  A
N992        C996   1.366       .  A
N992       H1023   1.043       .  S
N993       C1000   1.342       .  A
N993       C1001   1.332       .  A
C994       C1002   1.388       .  A
C994       C1010   1.393       .  A
C995       C1011   1.400       .  A
C995       C1003   1.386       .  A
C996       C1004   1.391       .  A
C996       C1013   1.459       .  A
C997       C1012   1.456       .  A
C997       C1005   1.390       .  A
C998       C1010   1.397       .  A
C998       C1006   1.381       .  A
C999       C1013   1.416       .  A
C999       C1007   1.393       .  A
C1000      C1008   1.373       .  A
C1000      C1011   1.388       .  A
C1001      C1009   1.392       .  A
C1001      C1012   1.395       .  A
C1002      C1003   1.384       .  A
C1002      H1014   1.082       .  S
C1003      H1015   1.082       .  S
C1004      C1005   1.413       .  A
C1004      H1016   1.082       .  S
C1005      H1017   1.082       .  S
C1006      C1007   1.371       .  A
C1006      H1018   1.083       .  S
C1007      H1019   1.082       .  S
C1008      C1009   1.380       .  A
C1008      H1020   1.079       .  S
C1009      H1021   1.082       .  S
C1010      C2754   1.458       .  S
C1011      C2767   1.479       .  S
C1024      C2737   1.468       .  S
C1024      N1025   1.365       .  A
C1024      N1029   1.358       .  A
N1025      C1026   1.363   1_554  A
C1026      C2727   1.490       .  S
C1026      N1027   1.349       .  A
N1027      C1028   1.346       .  A
C1028      C2744   1.474       .  S
C1028      N1029   1.351   1_556  A
C1030      C2694   1.449       .  S
C1030      N1031   1.355       .  A
C1030      N1035   1.355       .  A
N1031      C1032   1.347       .  A
C1032      C2714   1.470   1_554  S
C1032      N1033   1.349       .  A
N1033      C1034   1.348       .  A
C1034      C2707   1.494       .  S
C1034      N1035   1.355       .  A
C1036      C2684   1.468       .  S
C1036      N1037   1.350       .  A
C1036      N1041   1.358       .  A
N1037      C1038   1.347       .  A
C1038      C2757   1.442       .  S
C1038      N1039   1.346       .  A
N1039      C1040   1.348       .  A
C1040      C2677   1.480       .  S
C1040      N1041   1.354       .  A
N1042      C1047   1.343       .  A
N1042      C1046   1.342       .  A
N1042      H1074   1.041       .  S
N1043      C1050   1.345       .  A
N1043      C1051   1.338       .  A
N1044      C1049   1.367       .  A
N1044      C1048   1.367       .  A
N1044      H1075   1.041       .  S
N1045      C1052   1.350       .  A
N1045      C1053   1.348       .  A
C1046      C1054   1.390       .  A
C1046      C1062   1.411       .  A
C1047      C1063   1.402       .  A
C1047      C1055   1.385       .  A
C1048      C1056   1.391       .  A
C1048      C1065   1.455       .  A
C1049      C1064   1.456       .  A
C1049      C1057   1.390       .  A
C1050      C1062   1.397       .  A
C1050      C1058   1.382       .  A
C1051      C1065   1.400       .  A
C1051      C1059   1.391       .  A
C1052      C1060   1.383       .  A
C1052      C1063   1.399       .  A
C1053      C1061   1.384       .  A
C1053      C1064   1.407       .  A
C1054      C1055   1.386       .  A
C1054      H1066   1.082       .  S
C1055      H1067   1.082       .  S
C1056      C1057   1.412       .  A
C1056      H1068   1.082       .  S
C1057      H1069   1.082       .  S
C1058      C1059   1.374       .  A
C1058      H1070   1.083       .  S
C1059      H1071   1.081       .  S
C1060      C1061   1.353       .  A
C1060      H1072   1.081       .  S
C1061      H1073   1.074       .  S
C1062      C2697   1.480       .  S
C1063      C2674   1.472       .  S
N1076      C1081   1.353       .  A
N1076      C1080   1.335       .  A
N1076      H1108   1.043       .  S
N1077      C1084   1.356       .  A
N1077      C1085   1.365       .  A
N1078      C1083   1.365       .  A
N1078      C1082   1.361       .  A
N1078      H1109   1.043       .  S
N1079      C1086   1.339       .  A
N1079      C1087   1.328       .  A
C1080      C1088   1.388       .  A
C1080      C1096   1.394       .  A
C1081      C1097   1.410       .  A
C1081      C1089   1.387       .  A
C1082      C1090   1.390       .  A
C1082      C1099   1.445       .  A
C1083      C1098   1.445       .  A
C1083      C1091   1.389       .  A
C1084      C1096   1.415       .  A
C1084      C1092   1.378       .  A
C1085      C1099   1.439       .  A
C1085      C1093   1.391       .  A
C1086      C1094   1.373       .  A
C1086      C1097   1.390       .  A
C1087      C1095   1.386       .  A
C1087      C1098   1.385       .  A
C1088      C1089   1.375       .  A
C1088      H1100   1.082       .  S
C1089      H1101   1.082       .  S
C1090      C1091   1.407       .  A
C1090      H1102   1.082       .  S
C1091      H1103   1.082       .  S
C1092      C1093   1.363       .  A
C1092      H1104   1.083       .  S
C1093      H1105   1.073       .  S
C1094      C1095   1.377       .  A
C1094      H1106   1.074   1_554  S
C1095      H1107   1.081       .  S
C1096      C2687   1.460       .  S
C1097      C2724   1.487       .  S
N1110      C1115   1.344       .  A
N1110      C1114   1.338       .  A
N1110      H1142   1.039       .  S
N1111      C1118   1.354       .  A
N1111      C1119   1.350       .  A
N1112      C1117   1.369       .  A
N1112      C1116   1.363       .  A
N1112      H1143   1.041       .  S
N1113      C1120   1.343       .  A
N1113      C1121   1.335       .  A
C1114      C1122   1.388       .  A
C1114      C1130   1.397       .  A
C1115      C1131   1.401       .  A
C1115      C1123   1.385       .  A
C1116      C1124   1.388       .  A
C1116      C1133   1.446       .  A
C1117      C1132   1.451       .  A
C1117      C1125   1.389       .  A
C1118      C1130   1.411       .  A
C1118      C1126   1.384       .  A
C1119      C1133   1.414       .  A
C1119      C1127   1.391       .  A
C1120      C1128   1.382       .  A
C1120      C1131   1.397       .  A
C1121      C1129   1.391       .  A
C1121      C1132   1.401       .  A
C1122      C1123   1.377       .  A
C1122      H1134   1.081       .  S
C1123      H1135   1.083       .  S
C1124      C1125   1.404       .  A
C1124      H1136   1.082       .  S
C1125      H1137   1.081       .  S
C1126      C1127   1.365       .  A
C1126      H1138   1.083       .  S
C1127      H1139   1.082       .  S
C1128      C1129   1.377       .  A
C1128      H1140   1.082       .  S
C1129      H1141   1.081       .  S
C1130      C2747   1.473       .  S
C1131      C2717   1.467       .  S
C1133      C1230   1.507       .  S
N1144      C1149   1.343       .  A
N1144      C1148   1.350       .  A
N1144      H1176   1.042       .  S
N1145      C1152   1.349       .  A
N1145      C1153   1.341       .  A
N1146      C1151   1.376       .  A
N1146      C1150   1.375       .  A
N1146      H1177   1.040       .  S
N1147      C1154   1.354       .  A
N1147      C1155   1.355       .  A
C1148      C1156   1.386       .  A
C1148      C1164   1.407       .  A
C1149      C1165   1.405       .  A
C1149      C1157   1.388       .  A
C1150      C1158   1.390       .  A
C1150      C1167   1.468       .  A
C1151      C1166   1.471       .  A
C1151      C1159   1.391       .  A
C1152      C1164   1.397       .  A
C1152      C1160   1.381       .  A
C1153      C1167   1.406       .  A
C1153      C1161   1.390       .  A
C1154      C1162   1.382       .  A
C1154      C1165   1.408       .  A
C1155      C1163   1.390       .  A
C1155      C1166   1.424       .  A
C1156      C1157   1.383       .  A
C1156      H1168   1.082       .  S
C1157      H1169   1.082       .  S
C1158      C1159   1.411       .  A
C1158      H1170   1.082       .  S
C1159      H1171   1.082       .  S
C1160      C1161   1.368       .  A
C1160      H1172   1.083       .  S
C1161      H1173   1.079       .  S
C1162      C1163   1.365       .  A
C1162      H1174   1.081       .  S
C1163      H1175   1.081       .  S
C1164      C2734   1.487       .  S
C1165      C2777   1.478       .  S
N1178      C1183   1.348       .  A
N1178      C1182   1.355       .  A
N1178      H1210   1.039       .  S
N1179      C1186   1.341       .  A
N1179      C1187   1.335       .  A
N1180      C1185   1.368       .  A
N1180      C1184   1.373       .  A
N1180      H1211   1.037       .  S
N1181      C1188   1.354       .  A
N1181      C1189   1.358       .  A
C1182      C1190   1.387       .  A
C1182      C1198   1.417       .  A
C1183      C1199   1.407       .  A
C1183      C1191   1.386       .  A
C1184      C1192   1.389       .  A
C1184      C1201   1.462       .  A
C1185      C1200   1.462       .  A
C1185      C1193   1.391       .  A
C1186      C1198   1.394       .  A
C1186      C1194   1.382       .  A
C1187      C1201   1.405       .  A
C1187      C1195   1.393       .  A
C1188      C1196   1.386       .  A
C1188      C1199   1.414       .  A
C1189      C1197   1.391       .  A
C1189      C1200   1.423       .  A
C1190      C1191   1.371       .  A
C1190      H1202   1.082       .  S
C1191      H1203   1.082       .  S
C1192      C1193   1.410       .  A
C1192      H1204   1.082   1_565  S
C1193      H1205   1.080   1_565  S
C1194      C1195   1.371       .  A
C1194      H1206   1.080       .  S
C1195      H1207   1.083       .  S
C1196      C1197   1.358       .  A
C1196      H1208   1.081       .  S
C1197      H1209   1.082       .  S
C1198      C2787   1.491       .  S
C1199      C2704   1.474       .  S
O1212      C1228   1.286       .  A
O1212     Zn1218   2.125       .  S
C1213      O1229   1.288       .  A
C1213      O1226   1.287       .  A
C1213      C1634   1.547       .  S
O1214      C1227   1.277       .  A
O1214     Cd1221   2.128       .  S
O1215      C1233   1.297       .  A
O1215     Cd1224   2.159       .  S
O1216      C1230   1.285       .  A
O1216     Cd1220   2.131       .  S
O1217      C1228   1.287       .  A
O1217     Cd1220   2.170       .  S
Zn1218     O1229   2.137       .  S
Zn1218     O1231   2.141       .  S
Zn1218     O1223   1.981       .  S
O1219      C1230   1.283       .  A
O1219     Cd1224   2.131       .  S
Cd1220     O1222   2.185       .  S
Cd1220     O1223   2.028       .  S
Cd1221     O1225   2.146       .  S
Cd1221     O1234   2.116       .  S
Cd1221     O1223   2.155       .  S
O1222      C1232   1.301       .  A
O1223     Cd1224   2.048       .  S
Cd1224     O1226   2.195       .  S
O1225      C1232   1.277       .  A
C1227      O1231   1.301       .  A
C1227      C1828   1.537       .  S
C1228      C1372   1.532       .  S
C1233      O1234   1.275       .  A
O1235      C1251   1.284       .  A
O1235     Zn1241   2.102   1_545  S
C1236      O1252   1.280       .  A
C1236      O1249   1.286       .  A
C1236      C1668   1.515       .  S
O1237      C1250   1.278   1_655  A
O1237     Cd1244   2.136       .  S
O1238      C1256   1.303       .  A
O1238     Cd1247   2.205       .  S
O1239      C1253   1.285       .  A
O1239     Cd1243   2.158       .  S
O1240      C1251   1.282       .  A
O1240     Cd1243   2.142   1_455  S
Zn1241     O1252   2.086       .  S
Zn1241     O1254   2.144       .  S
Zn1241     O1246   1.973   1_455  S
O1242      C1253   1.289       .  A
O1242     Cd1247   2.170   1_545  S
Cd1243     O1245   2.147       .  S
Cd1243     O1246   2.043   1_545  S
Cd1244     O1248   2.130       .  S
Cd1244     O1257   2.123       .  S
Cd1244     O1246   2.135       .  S
O1245      C1255   1.296       .  A
O1246     Cd1247   2.036       .  S
Cd1247     O1249   2.146   1_655  S
O1248      C1255   1.278   1_565  A
C1250      O1254   1.299       .  A
C1251      C2040   1.519       .  S
C1253      C1441   1.531       .  S
C1255      C1931   1.527       .  S
C1256      O1257   1.276       .  A
C1258      C2657   1.469       .  S
C1258      N1259   1.354       .  A
C1258      N1263   1.351   1_545  A
N1259      C1260   1.347       .  A
C1260      C2647   1.465       .  S
C1260      N1261   1.352   1_545  A
N1261      C1262   1.350       .  A
C1262      C2664   1.455       .  S
C1262      N1263   1.356       .  A
C1264      C2637   1.449       .  S
C1264      N1265   1.352       .  A
C1264      N1269   1.342       .  A
N1265      C1266   1.353       .  A
C1266      C2617   1.487       .  S
C1266      N1267   1.361       .  A
N1267      C1268   1.359       .  A
C1268      C2624   1.483   1_545  S
C1268      N1269   1.345       .  A
C1270      C2604   1.455       .  S
C1270      N1271   1.352       .  A
C1270      N1275   1.354       .  A
N1271      C1272   1.350       .  A
C1272      C2587   1.472       .  S
C1272      N1273   1.352       .  A
N1273      C1274   1.358       .  A
C1274      C2594   1.484       .  S
C1274      N1275   1.358       .  A
N1276      C1281   1.339       .  A
N1276      C1280   1.354       .  A
N1276      H1308   1.043       .  S
N1277      C1284   1.343       .  A
N1277      C1285   1.333       .  A
N1278      C1283   1.369       .  A
N1278      C1282   1.371       .  A
N1278      H1309   1.043       .  S
N1279      C1286   1.354       .  A
N1279      C1287   1.363       .  A
C1280      C1288   1.387       .  A
C1280      C1296   1.412       .  A
C1281      C1297   1.402       .  A
C1281      C1289   1.389       .  A
C1282      C1290   1.388       .  A
C1282      C1299   1.455       .  A
C1283      C1298   1.461       .  A
C1283      C1291   1.391       .  A
C1284      C1296   1.394       .  A
C1284      C1292   1.374       .  A
C1285      C1299   1.399       .  A
C1285      C1293   1.396       .  A
C1286      C1294   1.381       .  A
C1286      C1297   1.416       .  A
C1287      C1295   1.392       .  A
C1287      C1298   1.435       .  A
C1288      C1289   1.379       .  A
C1288      H1300   1.083       .  S
C1289      H1301   1.082       .  S
C1290      C1291   1.408       .  A
C1290      H1302   1.082       .  S
C1291      H1303   1.082       .  S
C1292      C1293   1.376       .  A
C1292      H1304   1.077       .  S
C1293      H1305   1.083       .  S
C1294      C1295   1.373       .  A
C1294      H1306   1.083       .  S
C1295      H1307   1.077       .  S
C1296      C2597   1.488       .  S
C1297      C2614   1.473       .  S
N1310      C1315   1.343       .  A
N1310      C1314   1.347       .  A
N1310      H1342   1.041       .  S
N1311      C1318   1.340       .  A
N1311      C1319   1.335       .  A
N1312      C1317   1.369       .  A
N1312      C1316   1.379       .  A
N1312      H1343   1.039       .  S
N1313      C1320   1.356       .  A
N1313      C1321   1.355       .  A
C1314      C1322   1.388       .  A
C1314      C1330   1.408       .  A
C1315      C1331   1.398       .  A
C1315      C1323   1.385       .  A
C1316      C1324   1.390       .  A
C1316      C1333   1.470       .  A
C1317      C1332   1.466       .  A
C1317      C1325   1.391       .  A
C1318      C1330   1.392       .  A
C1318      C1326   1.385       .  A
C1319      C1333   1.397       .  A
C1319      C1327   1.390       .  A
C1320      C1328   1.384       .  A
C1320      C1331   1.414       .  A
C1321      C1329   1.393       .  A
C1321      C1332   1.422       .  A
C1322      C1323   1.378       .  A
C1322      H1334   1.082       .  S
C1323      H1335   1.082       .  S
C1324      C1325   1.412       .  A
C1324      H1336   1.082       .  S
C1325      H1337   1.082       .  S
C1326      C1327   1.373       .  A
C1326      H1338   1.083       .  S
C1327      H1339   1.083       .  S
C1328      C1329   1.360       .  A
C1328      H1340   1.082       .  S
C1329      H1341   1.082       .  S
C1330      C2644   1.472       .  S
C1331      C2584   1.477       .  S
C1344      C2564   1.468       .  S
C1344      N1345   1.350       .  A
C1344      N1349   1.363       .  A
N1345      C1346   1.349       .  A
C1346      C2574   1.455       .  S
C1346      N1347   1.349       .  A
N1347      C1348   1.357       .  A
C1348      C2554   1.481       .  S
C1348      N1349   1.358       .  A
N1350      C1355   1.342       .  A
N1350      C1354   1.345       .  A
N1350      H1382   1.042       .  S
N1351      C1358   1.343       .  A
N1351      C1359   1.334       .  A
N1352      C1357   1.366       .  A
N1352      C1356   1.377       .  A
N1352      H1383   1.040       .  S
N1353      C1360   1.356       .  A
N1353      C1361   1.355       .  A
C1354      C1362   1.387       .  A
C1354      C1370   1.405       .  A
C1355      C1371   1.399       .  A
C1355      C1363   1.388       .  A
C1356      C1364   1.390       .  A
C1356      C1373   1.466       .  A
C1357      C1372   1.462       .  A
C1357      C1365   1.391       .  A
C1358      C1370   1.396       .  A
C1358      C1366   1.384       .  A
C1359      C1373   1.396       .  A
C1359      C1367   1.386       .  A
C1360      C1368   1.385       .  A
C1360      C1371   1.416       .  A
C1361      C1369   1.391       .  A
C1361      C1372   1.421       .  A
C1362      C1363   1.381       .  A
C1362      H1374   1.082       .  S
C1363      H1375   1.082       .  S
C1364      C1365   1.412       .  A
C1364      H1376   1.082       .  S
C1365      H1377   1.082       .  S
C1366      C1367   1.378       .  A
C1366      H1378   1.082       .  S
C1367      H1379   1.080       .  S
C1368      C1369   1.370       .  A
C1368      H1380   1.082       .  S
C1369      H1381   1.082       .  S
C1370      C2607   1.473       .  S
C1371      C2557   1.483       .  S
N1384      C1389   1.344       .  A
N1384      C1388   1.338       .  A
N1384      H1416   1.042       .  S
N1385      C1392   1.355       .  A
N1385      C1393   1.351       .  A
N1386      C1391   1.372       .  A
N1386      C1390   1.364       .  A
N1386      H1417   1.040       .  S
N1387      C1394   1.342       .  A
N1387      C1395   1.338       .  A
C1388      C1396   1.385       .  A
C1388      C1404   1.390       .  A
C1389      C1405   1.402       .  A
C1389      C1397   1.388       .  A
C1390      C1398   1.391       .  A
C1390      C1407   1.454       .  A
C1391      C1406   1.456       .  A
C1391      C1399   1.389       .  A
C1392      C1404   1.402       .  A
C1392      C1400   1.377       .  A
C1393      C1407   1.423       .  A
C1393      C1401   1.397       .  A
C1394      C1402   1.378       .  A
C1394      C1405   1.391       .  A
C1395      C1403   1.391       .  A
C1395      C1406   1.399       .  A
C1396      C1397   1.378       .  A
C1396      H1408   1.082       .  S
C1397      H1409   1.082       .  S
C1398      C1399   1.409       .  A
C1398      H1410   1.082       .  S
C1399      H1411   1.082       .  S
C1400      C1401   1.357       .  A
C1400      H1412   1.082       .  S
C1401      H1413   1.079       .  S
C1402      C1403   1.369       .  A
C1402      H1414   1.078       .  S
C1403      H1415   1.082       .  S
C1404      C2627   1.468       .  S
C1405      C2667   1.473       .  S
N1418      C1423   1.344       .  A
N1418      C1422   1.341       .  A
N1418      H1450   1.037       .  S
N1419      C1426   1.353       .  A
N1419      C1427   1.347       .  A
N1420      C1425   1.370       .  A
N1420      C1424   1.373       .  A
N1420      H1451   1.040       .  S
N1421      C1428   1.352       .  A
N1421      C1429   1.346       .  A
C1422      C1430   1.388       .  A
C1422      C1438   1.399       .  A
C1423      C1439   1.399       .  A
C1423      C1431   1.386       .  A
C1424      C1432   1.389   1_655  A
C1424      C1441   1.460       .  A
C1425      C1440   1.458       .  A
C1425      C1433   1.390   1_655  A
C1426      C1438   1.405       .  A
C1426      C1434   1.381       .  A
C1427      C1441   1.411       .  A
C1427      C1435   1.384       .  A
C1428      C1436   1.382       .  A
C1428      C1439   1.405       .  A
C1429      C1437   1.393       .  A
C1429      C1440   1.409       .  A
C1430      C1431   1.374       .  A
C1430      H1442   1.081       .  S
C1431      H1443   1.082       .  S
C1432      C1433   1.407       .  A
C1432      H1444   1.082       .  S
C1433      H1445   1.082       .  S
C1434      C1435   1.364       .  A
C1434      H1446   1.082       .  S
C1435      H1447   1.073       .  S
C1436      C1437   1.366       .  A
C1436      H1448   1.082       .  S
C1437      H1449   1.082       .  S
C1438      C2634   1.472       .  S
C1439      C2577   1.478       .  S
C1440      C1943   1.515       .  S
N1452      C1457   1.341       .  A
N1452      C1456   1.342       .  A
N1452      H1484   1.043       .  S
N1453      C1460   1.343       .  A
N1453      C1461   1.340       .  A
N1454      C1459   1.368       .  A
N1454      C1458   1.368       .  A
N1454      H1485   1.041       .  S
N1455      C1462   1.347       .  A
N1455      C1463   1.345       .  A
C1456      C1464   1.387       .  A
C1456      C1472   1.399       .  A
C1457      C1473   1.399       .  A
C1457      C1465   1.387       .  A
C1458      C1466   1.390       .  A
C1458      C1475   1.456       .  A
C1459      C1474   1.458       .  A
C1459      C1467   1.389       .  A
C1460      C1472   1.389       .  A
C1460      C1468   1.379       .  A
C1461      C1475   1.405       .  A
C1461      C1469   1.394       .  A
C1462      C1470   1.379       .  A
C1462      C1473   1.398       .  A
C1463      C1471   1.395       .  A
C1463      C1474   1.414       .  A
C1464      C1465   1.385       .  A
C1464      H1476   1.082       .  S
C1465      H1477   1.082       .  S
C1466      C1467   1.409       .  A
C1466      H1478   1.082   1_556  S
C1467      H1479   1.080   1_556  S
C1468      C1469   1.369       .  A
C1468      H1480   1.082       .  S
C1469      H1481   1.083       .  S
C1470      C1471   1.369       .  A
C1470      H1482   1.083   1_545  S
C1471      H1483   1.079   1_545  S
C1472      C2567   1.465       .  S
C1473      C2654   1.472       .  S
C1486      C2537   1.464       .  S
C1486      N1487   1.357   1_655  A
C1486      N1491   1.355   1_655  A
N1487      C1488   1.355       .  A
C1488      C2544   1.497       .  S
C1488      N1489   1.354       .  A
N1489      C1490   1.354       .  A
C1490      C2524   1.488       .  S
C1490      N1491   1.355       .  A
N1492      C1497   1.345       .  A
N1492      C1496   1.346       .  A
N1492      H1524   1.044       .  S
N1493      C1500   1.351       .  A
N1493      C1501   1.348       .  A
N1494      C1499   1.371       .  A
N1494      C1498   1.369       .  A
N1494      H1525   1.041       .  S
N1495      C1502   1.348       .  A
N1495      C1503   1.343       .  A
C1496      C1504   1.387       .  A
C1496      C1512   1.402       .  A
C1497      C1513   1.403       .  A
C1497      C1505   1.386       .  A
C1498      C1506   1.390       .  A
C1498      C1515   1.463       .  A
C1499      C1514   1.463       .  A
C1499      C1507   1.391       .  A
C1500      C1512   1.394       .  A
C1500      C1508   1.372       .  A
C1501      C1515   1.415       .  A
C1501      C1509   1.388       .  A
C1502      C1510   1.381       .  A
C1502      C1513   1.391       .  A
C1503      C1511   1.384       .  A
C1503      C1514   1.406       .  A
C1504      C1505   1.378       .  A
C1504      H1516   1.082       .  S
C1505      H1517   1.080       .  S
C1506      C1507   1.413       .  A
C1506      H1518   1.081       .  S
C1507      H1519   1.082       .  S
C1508      C1509   1.367       .  A
C1508      H1520   1.075       .  S
C1509      H1521   1.080       .  S
C1510      C1511   1.366       .  A
C1510      H1522   1.081       .  S
C1511      H1523   1.076       .  S
C1512      C2527   1.481       .  S
C1513      C2514   1.475       .  S
C1526      C2484   1.476       .  S
C1526      N1527   1.352       .  A
C1526      N1531   1.359       .  A
N1527      C1528   1.346       .  A
C1528      C2497   1.459       .  S
C1528      N1529   1.354       .  A
N1529      C1530   1.354       .  A
C1530      C2507   1.484       .  S
C1530      N1531   1.366       .  A
C1532      C2477   1.457       .  S
C1532      N1533   1.363       .  A
C1532      N1537   1.362       .  A
N1533      C1534   1.356       .  A
C1534      C2464   1.480       .  S
C1534      N1535   1.340       .  A
N1535      C1536   1.344       .  A
C1536      C2517   1.466       .  S
C1536      N1537   1.354       .  A
N1538      C1543   1.338       .  A
N1538      C1542   1.351       .  A
N1538      H1570   1.031       .  S
N1539      C1546   1.344       .  A
N1539      C1547   1.340       .  A
N1540      C1545   1.378       .  A
N1540      C1544   1.378       .  A
N1540      H1571   1.038       .  S
N1541      C1548   1.354       .  A
N1541      C1549   1.352       .  A
C1542      C1550   1.387       .  A
C1542      C1558   1.411       .  A
C1543      C1559   1.401       .  A
C1543      C1551   1.386       .  A
C1544      C1552   1.389       .  A
C1544      C1561   1.472       .  A
C1545      C1560   1.479       .  A
C1545      C1553   1.393       .  A
C1546      C1558   1.406       .  A
C1546      C1554   1.387       .  A
C1547      C1561   1.396       .  A
C1547      C1555   1.388       .  A
C1548      C1556   1.376       .  A
C1548      C1559   1.407       .  A
C1549      C1557   1.397       .  A
C1549      C1560   1.436       .  A
C1550      C1551   1.375       .  A
C1550      H1562   1.082       .  S
C1551      H1563   1.081       .  S
C1552      C1553   1.412       .  A
C1552      H1564   1.082       .  S
C1553      H1565   1.081       .  S
C1554      C1555   1.372       .  A
C1554      H1566   1.082       .  S
C1555      H1567   1.083       .  S
C1556      C1557   1.368       .  A
C1556      H1568   1.083       .  S
C1557      H1569   1.080       .  S
C1558      C2487   1.479       .  S
C1559      C2467   1.476       .  S
C1572      C2457   1.441       .  S
C1572      N1573   1.338   1_455  A
C1572      N1577   1.345       .  A
N1573      C1574   1.346       .  A
C1574      C2434   1.490       .  S
C1574      N1575   1.357   1_655  A
N1575      C1576   1.362       .  A
C1576      C2444   1.463       .  S
C1576      N1577   1.347       .  A
N1578      C1583   1.341       .  A
N1578      C1582   1.343       .  A
N1578      H1610   1.038       .  S
N1579      C1586   1.350       .  A
N1579      C1587   1.343       .  A
N1580      C1585   1.371       .  A
N1580      C1584   1.370       .  A
N1580      H1611   1.039       .  S
N1581      C1588   1.353       .  A
N1581      C1589   1.352       .  A
C1582      C1590   1.387       .  A
C1582      C1598   1.399       .  A
C1583      C1599   1.396       .  A
C1583      C1591   1.387       .  A
C1584      C1592   1.390       .  A
C1584      C1601   1.458       .  A
C1585      C1600   1.458       .  A
C1585      C1593   1.389       .  A
C1586      C1598   1.399       .  A
C1586      C1594   1.379       .  A
C1587      C1601   1.408       .  A
C1587      C1595   1.393       .  A
C1588      C1596   1.386       .  A
C1588      C1599   1.413       .  A
C1589      C1597   1.389       .  A
C1589      C1600   1.412       .  A
C1590      C1591   1.377       .  A
C1590      H1602   1.082       .  S
C1591      H1603   1.082       .  S
C1592      C1593   1.407       .  A
C1592      H1604   1.082       .  S
C1593      H1605   1.082       .  S
C1594      C1595   1.366       .  A
C1594      H1606   1.082       .  S
C1595      H1607   1.077       .  S
C1596      C1597   1.362       .  A
C1596      H1608   1.082       .  S
C1597      H1609   1.082       .  S
C1598      C2474   1.472       .  S
C1599      C2447   1.472       .  S
C1600      C1958   1.526       .  S
N1612      C1617   1.341       .  A
N1612      C1616   1.345       .  A
N1612      H1644   1.042       .  S
N1613      C1620   1.351       .  A
N1613      C1621   1.343       .  A
N1614      C1619   1.378       .  A
N1614      C1618   1.379       .  A
N1614      H1645   1.040       .  S
N1615      C1622   1.355       .  A
N1615      C1623   1.353       .  A
C1616      C1624   1.387       .  A
C1616      C1632   1.401       .  A
C1617      C1633   1.394       .  A
C1617      C1625   1.386       .  A
C1618      C1626   1.391       .  A
C1618      C1635   1.475       .  A
C1619      C1634   1.476       .  A
C1619      C1627   1.391       .  A
C1620      C1632   1.393       .  A
C1620      C1628   1.375       .  A
C1621      C1635   1.413       .  A
C1621      C1629   1.394       .  A
C1622      C1630   1.380       .  A
C1622      C1633   1.407       .  A
C1623      C1631   1.397       .  A
C1623      C1634   1.423       .  A
C1624      C1625   1.376       .  A
C1624      H1636   1.082       .  S
C1625      H1637   1.082       .  S
C1626      C1627   1.413       .  A
C1626      H1638   1.082       .  S
C1627      H1639   1.082       .  S
C1628      C1629   1.364       .  A
C1628      H1640   1.083       .  S
C1629      H1641   1.072       .  S
C1630      C1631   1.357       .  A
C1630      H1642   1.082       .  S
C1631      H1643   1.079       .  S
C1632      C2534   1.481       .  S
C1633      C2437   1.470       .  S
N1646      C1651   1.342       .  A
N1646      C1650   1.352       .  A
N1646      H1678   1.040       .  S
N1647      C1654   1.343       .  A
N1647      C1655   1.337       .  A
N1648      C1653   1.360       .  A
N1648      C1652   1.370       .  A
N1648      H1679   1.039       .  S
N1649      C1656   1.357       .  A
N1649      C1657   1.357       .  A
C1650      C1658   1.384       .  A
C1650      C1666   1.407       .  A
C1651      C1667   1.408       .  A
C1651      C1659   1.390       .  A
C1652      C1660   1.388       .  A
C1652      C1669   1.450       .  A
C1653      C1668   1.449       .  A
C1653      C1661   1.391       .  A
C1654      C1666   1.393       .  A
C1654      C1662   1.381       .  A
C1655      C1669   1.395       .  A
C1655      C1663   1.383       .  A
C1656      C1664   1.385       .  A
C1656      C1667   1.418       .  A
C1657      C1665   1.390       .  A
C1657      C1668   1.424       .  A
C1658      C1659   1.379       .  A
C1658      H1670   1.082       .  S
C1659      H1671   1.082       .  S
C1660      C1661   1.407       .  A
C1660      H1672   1.082   1_565  S
C1661      H1673   1.082   1_565  S
C1662      C1663   1.372       .  A
C1662      H1674   1.081       .  S
C1663      H1675   1.079       .  S
C1664      C1665   1.366       .  A
C1664      H1676   1.082       .  S
C1665      H1677   1.082       .  S
C1666      C2504   1.482       .  S
C1667      C2547   1.479       .  S
N1680      C1685   1.341       .  A
N1680      C1684   1.342       .  A
N1680      H1712   1.043       .  S
N1681      C1688   1.353       .  A
N1681      C1689   1.350       .  A
N1682      C1687   1.371       .  A
N1682      C1686   1.363       .  A
N1682      H1713   1.041       .  S
N1683      C1690   1.339       .  A
N1683      C1691   1.334       .  A
C1684      C1692   1.385       .  A
C1684      C1700   1.394       .  A
C1685      C1701   1.404       .  A
C1685      C1693   1.390       .  A
C1686      C1694   1.389       .  A
C1686      C1703   1.451       .  A
C1687      C1702   1.458       .  A
C1687      C1695   1.391       .  A
C1688      C1700   1.409       .  A
C1688      C1696   1.384       .  A
C1689      C1703   1.409       .  A
C1689      C1697   1.387       .  A
C1690      C1698   1.385       .  A
C1690      C1701   1.392       .  A
C1691      C1699   1.388       .  A
C1691      C1702   1.395       .  A
C1692      C1693   1.382       .  A
C1692      H1704   1.082       .  S
C1693      H1705   1.082       .  S
C1694      C1695   1.409       .  A
C1694      H1706   1.082   1_556  S
C1695      H1707   1.082   1_556  S
C1696      C1697   1.356       .  A
C1696      H1708   1.079       .  S
C1697      H1709   1.078       .  S
C1698      C1699   1.374       .  A
C1698      H1710   1.083   1_455  S
C1699      H1711   1.081   1_455  S
C1700      C2494   1.480       .  S
C1701      C2454   1.458       .  S
C1714      C2404   1.462       .  S
C1714      N1715   1.358       .  A
C1714      N1719   1.360       .  A
N1715      C1716   1.352       .  A
C1716      C2424   1.482       .  S
C1716      N1717   1.354       .  A
N1717      C1718   1.355       .  A
C1718      C2414   1.485       .  S
C1718      N1719   1.357       .  A
N1720      C1725   1.351       .  A
N1720      C1724   1.340       .  A
N1720      H1752   1.037       .  S
N1721      C1728   1.356       .  A
N1721      C1729   1.357       .  A
N1722      C1727   1.367       .  A
N1722      C1726   1.366       .  A
N1722      H1753   1.035       .  S
N1723      C1730   1.342       .  A
N1723      C1731   1.343       .  A
C1724      C1732   1.396       .  A
C1724      C1740   1.417       .  A
C1725      C1741   1.403       .  A
C1725      C1733   1.373       .  A
C1726      C1734   1.396       .  A
C1726      C1743   1.470       .  A
C1727      C1742   1.458       .  A
C1727      C1735   1.388       .  A
C1728      C1740   1.426       .  A
C1728      C1736   1.387       .  A
C1729      C1743   1.425       .  A
C1729      C1737   1.384       .  A
C1730      C1738   1.391       .  A
C1730      C1741   1.392       .  A
C1731      C1739   1.383       .  A
C1731      C1742   1.393       .  A
C1732      C1733   1.379       .  A
C1732      H1744   1.082       .  S
C1733      H1745   1.077       .  S
C1734      C1735   1.418       .  A
C1734      H1746   1.082       .  S
C1735      H1747   1.082       .  S
C1736      C1737   1.370       .  A
C1736      H1748   1.082       .  S
C1737      H1749   1.078       .  S
C1738      C1739   1.366       .  A
C1738      H1750   1.082       .  S
C1739      H1751   1.083       .  S
C1740      C2394   1.483       .  S
C1741      C2417   1.488       .  S
C1754      C2397   1.451       .  S
C1754      N1755   1.350       .  A
C1754      N1759   1.352       .  A
N1755      C1756   1.351       .  A
C1756      C2374   1.458       .  S
C1756      N1757   1.352       .  A
N1757      C1758   1.356       .  A
C1758      C2384   1.486       .  S
C1758      N1759   1.351       .  A
C1760      C2354   1.466       .  S
C1760      N1761   1.356       .  A
C1760      N1765   1.348       .  A
N1761      C1762   1.361   1_655  A
C1762      C2344   1.494       .  S
C1762      N1763   1.367       .  A
N1763      C1764   1.360       .  A
C1764      C2364   1.492       .  S
C1764      N1765   1.345   1_455  A
C1766      C2334   1.476       .  S
C1766      N1767   1.350       .  A
C1766      N1771   1.356       .  A
N1767      C1768   1.358   1_455  A
C1768      C2327   1.488       .  S
C1768      N1769   1.356       .  A
N1769      C1770   1.356   1_655  A
C1770      C2314   1.463   1_455  S
C1770      N1771   1.351       .  A
N1772      C1777   1.344       .  A
N1772      C1776   1.350       .  A
N1772      H1804   1.042       .  S
N1773      C1780   1.344       .  A
N1773      C1781   1.336       .  A
N1774      C1779   1.371       .  A
N1774      C1778   1.378       .  A
N1774      H1805   1.041       .  S
N1775      C1782   1.354       .  A
N1775      C1783   1.356       .  A
C1776      C1784   1.388       .  A
C1776      C1792   1.409       .  A
C1777      C1793   1.400       .  A
C1777      C1785   1.386       .  A
C1778      C1786   1.391       .  A
C1778      C1795   1.471       .  A
C1779      C1794   1.467       .  A
C1779      C1787   1.391       .  A
C1780      C1792   1.397       .  A
C1780      C1788   1.381       .  A
C1781      C1795   1.403       .  A
C1781      C1789   1.387       .  A
C1782      C1790   1.383       .  A
C1782      C1793   1.410       .  A
C1783      C1791   1.392       .  A
C1783      C1794   1.422       .  A
C1784      C1785   1.376       .  A
C1784      H1796   1.082       .  S
C1785      H1797   1.082       .  S
C1786      C1787   1.414       .  A
C1786      H1798   1.082       .  S
C1787      H1799   1.082       .  S
C1788      C1789   1.377       .  A
C1788      H1800   1.082       .  S
C1789      H1801   1.080       .  S
C1790      C1791   1.368       .  A
C1790      H1802   1.083       .  S
C1791      H1803   1.082       .  S
C1792      C2337   1.482       .  S
C1793      C2367   1.474       .  S
N1806      C1811   1.339       .  A
N1806      C1810   1.344       .  A
N1806      H1838   1.041       .  S
N1807      C1814   1.350       .  A
N1807      C1815   1.346       .  A
N1808      C1813   1.371       .  A
N1808      C1812   1.370       .  A
N1808      H1839   1.042       .  S
N1809      C1816   1.347       .  A
N1809      C1817   1.342       .  A
C1810      C1818   1.385       .  A
C1810      C1826   1.400       .  A
C1811      C1827   1.401       .  A
C1811      C1819   1.388       .  A
C1812      C1820   1.391       .  A
C1812      C1829   1.461       .  A
C1813      C1828   1.462       .  A
C1813      C1821   1.391       .  A
C1814      C1826   1.405       .  A
C1814      C1822   1.383       .  A
C1815      C1829   1.408       .  A
C1815      C1823   1.389       .  A
C1816      C1824   1.384       .  A
C1816      C1827   1.401       .  A
C1817      C1825   1.389       .  A
C1817      C1828   1.400       .  A
C1818      C1819   1.383       .  A
C1818      H1830   1.082       .  S
C1819      H1831   1.082       .  S
C1820      C1821   1.410       .  A
C1820      H1832   1.081       .  S
C1821      H1833   1.081       .  S
C1822      C1823   1.366       .  A
C1822      H1834   1.082       .  S
C1823      H1835   1.083       .  S
C1824      C1825   1.372       .  A
C1824      H1836   1.082       .  S
C1825      H1837   1.083       .  S
C1826      C2317   1.480       .  S
C1827      C2377   1.465       .  S
C1829      C1957   1.542       .  S
N1840      C1845   1.350       .  A
N1840      C1844   1.346       .  A
N1840      H1872   1.019       .  S
N1841      C1848   1.358       .  A
N1841      C1849   1.355       .  A
N1842      C1847   1.373       .  A
N1842      C1846   1.374       .  A
N1842      H1873   1.017       .  S
N1843      C1850   1.355       .  A
N1843      C1851   1.348       .  A
C1844      C1852   1.389       .  A
C1844      C1860   1.408       .  A
C1845      C1861   1.404       .  A
C1845      C1853   1.385       .  A
C1846      C1854   1.390       .  A
C1846      C1863   1.464       .  A
C1847      C1862   1.461       .  A
C1847      C1855   1.389       .  A
C1848      C1860   1.419       .  A
C1848      C1856   1.382       .  A
C1849      C1863   1.430       .  A
C1849      C1857   1.390       .  A
C1850      C1858   1.379       .  A
C1850      C1861   1.405       .  A
C1851      C1859   1.397       .  A
C1851      C1862   1.421       .  A
C1852      C1853   1.369       .  A
C1852      H1864   1.082       .  S
C1853      H1865   1.082       .  S
C1854      C1855   1.403       .  A
C1854      H1866   1.082   1_554  S
C1855      H1867   1.082   1_554  S
C1856      C1857   1.366       .  A
C1856      H1868   1.083       .  S
C1857      H1869   1.081       .  S
C1858      C1859   1.353       .  A
C1858      H1870   1.082       .  S
C1859      H1871   1.081       .  S
C1860      C2427   1.483       .  S
C1861      C2357   1.480       .  S
N1874      C1879   1.335       .  A
N1874      C1878   1.350       .  A
N1874      H1906   1.043       .  S
N1875      C1882   1.340       .  A
N1875      C1883   1.327       .  A
N1876      C1881   1.365       .  A
N1876      C1880   1.372       .  A
N1876      H1907   1.042       .  S
N1877      C1884   1.356       .  A
N1877      C1885   1.362       .  A
C1878      C1886   1.386       .  A
C1878      C1894   1.406       .  A
C1879      C1895   1.395       .  A
C1879      C1887   1.390       .  A
C1880      C1888   1.389       .  A
C1880      C1897   1.457       .  A
C1881      C1896   1.461       .  A
C1881      C1889   1.392       .  A
C1882      C1894   1.390       .  A
C1882      C1890   1.377       .  A
C1883      C1897   1.401       .  A
C1883      C1891   1.397       .  A
C1884      C1892   1.377       .  A
C1884      C1895   1.413       .  A
C1885      C1893   1.391       .  A
C1885      C1896   1.437       .  A
C1886      C1887   1.377       .  A
C1886      H1898   1.082       .  S
C1887      H1899   1.082       .  S
C1888      C1889   1.412       .  A
C1888      H1900   1.082       .  S
C1889      H1901   1.082       .  S
C1890      C1891   1.381       .  A
C1890      H1902   1.081   1_655  S
C1891      H1903   1.083       .  S
C1892      C1893   1.368       .  A
C1892      H1904   1.083       .  S
C1893      H1905   1.069       .  S
C1894      C2347   1.475       .  S
C1895      C2387   1.468       .  S
N1908      C1913   1.341       .  A
N1908      C1912   1.348       .  A
N1908      H1940   1.041       .  S
N1909      C1916   1.346       .  A
N1909      C1917   1.342       .  A
N1910      C1915   1.365       .  A
N1910      C1914   1.368       .  A
N1910      H1941   1.041       .  S
N1911      C1918   1.353       .  A
N1911      C1919   1.353       .  A
C1912      C1920   1.384       .  A
C1912      C1928   1.404       .  A
C1913      C1929   1.406       .  A
C1913      C1921   1.389       .  A
C1914      C1922   1.388       .  A
C1914      C1931   1.450       .  A
C1915      C1930   1.453       .  A
C1915      C1923   1.391       .  A
C1916      C1928   1.395       .  A
C1916      C1924   1.380       .  A
C1917      C1931   1.406       .  A
C1917      C1925   1.392       .  A
C1918      C1926   1.382       .  A
C1918      C1929   1.411       .  A
C1919      C1927   1.393       .  A
C1919      C1930   1.421       .  A
C1920      C1921   1.385       .  A
C1920      H1932   1.082       .  S
C1921      H1933   1.082       .  S
C1922      C1923   1.407       .  A
C1922      H1934   1.082   1_545  S
C1923      H1935   1.082       .  S
C1924      C1925   1.367       .  A
C1924      H1936   1.080       .  S
C1925      H1937   1.082       .  S
C1926      C1927   1.369       .  A
C1926      H1938   1.083       .  S
C1927      H1939   1.080       .  S
C1928      C2324   1.480       .  S
C1929      C2407   1.480       .  S
O1942      C1958   1.284       .  A
O1942     Zn1948   2.118   1_455  S
C1943      O1959   1.283       .  A
C1943      O1956   1.284       .  A
O1944      C1957   1.278       .  A
O1944     Cd1951   2.144       .  S
O1945      C1963   1.302       .  A
O1945     Cd1954   2.172       .  S
O1946      C1960   1.286       .  A
O1946     Cd1950   2.158       .  S
O1947      C1958   1.286       .  A
O1947     Cd1950   2.157       .  S
Zn1948     O1959   2.096       .  S
Zn1948     O1961   2.122       .  S
Zn1948     O1953   1.976   1_655  S
O1949      C1960   1.285       .  A
O1949     Cd1954   2.152   1_455  S
Cd1950     O1952   2.183       .  S
Cd1950     O1953   2.030       .  S
Cd1951     O1955   2.137       .  S
Cd1951     O1964   2.128       .  S
Cd1951     O1953   2.153   1_655  S
O1952      C1962   1.302       .  A
O1953     Cd1954   2.028   1_455  S
Cd1954     O1956   2.144       .  S
O1955      C1962   1.278   1_655  A
C1957      O1961   1.296       .  A
C1960      C2113   1.524       .  S
C1963      O1964   1.276       .  A
C1965      C2294   1.456   1_655  S
C1965      N1966   1.347   1_556  A
C1965      N1970   1.349   1_655  A
N1966      C1967   1.353       .  A
C1967      C2307   1.462       .  S
C1967      N1968   1.356       .  A
N1968      C1969   1.363   1_554  A
C1969      C2284   1.485   1_655  S
C1969      N1970   1.352   1_655  A
N1971      C1976   1.338       .  A
N1971      C1975   1.346       .  A
N1971      H2003   1.042       .  S
N1972      C1979   1.347       .  A
N1972      C1980   1.341       .  A
N1973      C1978   1.352       .  A
N1973      C1977   1.351       .  A
N1973      H2004   1.042       .  S
N1974      C1981   1.362       .  A
N1974      C1982   1.360       .  A
C1975      C1983   1.381   1_554  A
C1975      C1991   1.391       .  A
C1976      C1992   1.401       .  A
C1976      C1984   1.389       .  A
C1977      C1985   1.383       .  A
C1977      C1994   1.404       .  A
C1978      C1993   1.418       .  A
C1978      C1986   1.390       .  A
C1979      C1991   1.403       .  A
C1979      C1987   1.385       .  A
C1980      C1994   1.402       .  A
C1980      C1988   1.387       .  A
C1981      C1989   1.387       .  A
C1981      C1992   1.442       .  A
C1982      C1990   1.390       .  A
C1982      C1993   1.445       .  A
C1983      C1984   1.371   1_556  A
C1983      H1995   1.081       .  S
C1984      H1996   1.080   1_554  S
C1985      C1986   1.372       .  A
C1985      H1997   1.081       .  S
C1986      H1998   1.081       .  S
C1987      C1988   1.382       .  A
C1987      H1999   1.082       .  S
C1988      H2000   1.082       .  S
C1989      C1990   1.404       .  A
C1989      H2001   1.082       .  S
C1990      H2002   1.082       .  S
C1991      C2287   1.477       .  S
C1994      C2274   1.476       .  S
C2005      C2244   1.481       .  S
C2005      N2006   1.350   1_465  A
C2005      N2010   1.354       .  A
N2006      C2007   1.348       .  A
C2007      C2257   1.447       .  S
C2007      N2008   1.354   1_655  A
N2008      C2009   1.353   1_545  A
C2009      C2264   1.472       .  S
C2009      N2010   1.356       .  A
C2011      C2277   1.485       .  S
C2011      N2012   1.362       .  A
C2011      N2016   1.351       .  A
N2012      C2013   1.364       .  A
C2013      C2227   1.471       .  S
C2013      N2014   1.356       .  A
N2014      C2015   1.349       .  A
C2015      C2234   1.489       .  S
C2015      N2016   1.348       .  A
N2017      C2022   1.349       .  A
N2017      C2021   1.349       .  A
N2017      H2049   1.031       .  S
N2018      C2025   1.349       .  A
N2018      C2026   1.347       .  A
N2019      C2024   1.367       .  A
N2019      C2023   1.373       .  A
N2019      H2050   1.035       .  S
N2020      C2027   1.358       .  A
N2020      C2028   1.353       .  A
C2021      C2029   1.384       .  A
C2021      C2037   1.407       .  A
C2022      C2038   1.416       .  A
C2022      C2030   1.391       .  A
C2023      C2031   1.389       .  A
C2023      C2040   1.457       .  A
C2024      C2039   1.454       .  A
C2024      C2032   1.389       .  A
C2025      C2037   1.401       .  A
C2025      C2033   1.380       .  A
C2026      C2040   1.417       .  A
C2026      C2034   1.396       .  A
C2027      C2035   1.380       .  A
C2027      C2038   1.416       .  A
C2028      C2036   1.389       .  A
C2028      C2039   1.425       .  A
C2029      C2030   1.373       .  A
C2029      H2041   1.083       .  S
C2030      H2042   1.082       .  S
C2031      C2032   1.402       .  A
C2031      H2043   1.082       .  S
C2032      H2044   1.082       .  S
C2033      C2034   1.352       .  A
C2033      H2045   1.082   1_545  S
C2034      H2046   1.077       .  S
C2035      C2036   1.359       .  A
C2035      H2047   1.081       .  S
C2036      H2048   1.080       .  S
C2037      C2247   1.475       .  S
C2038      C2224   1.492       .  S
C2051      C2194   1.463       .  S
C2051      N2052   1.348   1_565  A
C2051      N2056   1.360       .  A
N2052      C2053   1.342   1_545  A
C2053      C2214   1.454   1_565  S
C2053      N2054   1.343       .  A
N2054      C2055   1.352       .  A
C2055      C2207   1.482       .  S
C2055      N2056   1.364       .  A
N2057      C2062   1.349       .  A
N2057      C2061   1.341       .  A
N2057      H2089   1.037       .  S
N2058      C2065   1.358       .  A
N2058      C2066   1.357       .  A
N2059      C2064   1.374       .  A
N2059      C2063   1.377       .  A
N2059      H2090   1.036       .  S
N2060      C2067   1.354       .  A
N2060      C2068   1.345       .  A
C2061      C2069   1.393       .  A
C2061      C2077   1.407       .  A
C2062      C2078   1.397       .  A
C2062      C2070   1.381       .  A
C2063      C2071   1.393       .  A
C2063      C2080   1.472       .  A
C2064      C2079   1.462       .  A
C2064      C2072   1.386       .  A
C2065      C2077   1.415       .  A
C2065      C2073   1.381       .  A
C2066      C2080   1.431       .  A
C2066      C2074   1.392       .  A
C2067      C2075   1.375       .  A
C2067      C2078   1.398       .  A
C2068      C2076   1.399       .  A
C2068      C2079   1.418       .  A
C2069      C2070   1.370       .  A
C2069      H2081   1.080       .  S
C2070      H2082   1.083       .  S
C2071      C2072   1.403       .  A
C2071      H2083   1.080       .  S
C2072      H2084   1.082       .  S
C2073      C2074   1.367       .  A
C2073      H2085   1.082       .  S
C2074      H2086   1.081       .  S
C2075      C2076   1.348       .  A
C2075      H2087   1.081       .  S
C2076      H2088   1.079       .  S
C2077      C2237   1.479       .  S
C2078      C2197   1.483       .  S
N2091      C2096   1.339       .  A
N2091      C2095   1.333       .  A
N2091      H2123   1.042       .  S
N2092      C2099   1.345       .  A
N2092      C2100   1.345       .  A
N2093      C2098   1.369       .  A
N2093      C2097   1.380       .  A
N2093      H2124   1.040       .  S
N2094      C2101   1.355       .  A
N2094      C2102   1.348       .  A
C2095      C2103   1.387       .  A
C2095      C2111   1.386       .  A
C2096      C2112   1.385       .  A
C2096      C2104   1.385       .  A
C2097      C2105   1.392       .  A
C2097      C2114   1.473       .  A
C2098      C2113   1.464       .  A
C2098      C2106   1.390       .  A
C2099      C2111   1.403       .  A
C2099      C2107   1.385       .  A
C2100      C2114   1.410       .  A
C2100      C2108   1.387       .  A
C2101      C2109   1.381       .  A
C2101      C2112   1.408       .  A
C2102      C2110   1.392       .  A
C2102      C2113   1.412       .  A
C2103      C2104   1.375       .  A
C2103      H2115   1.082       .  S
C2104      H2116   1.081       .  S
C2105      C2106   1.412       .  A
C2105      H2117   1.081       .  S
C2106      H2118   1.082       .  S
C2107      C2108   1.372       .  A
C2107      H2119   1.083       .  S
C2108      H2120   1.079       .  S
C2109      C2110   1.365       .  A
C2109      H2121   1.082       .  S
C2110      H2122   1.081       .  S
C2111      C2217   1.449       .  S
C2112      C2297   1.468       .  S
N2125      C2130   1.349       .  A
N2125      C2129   1.333       .  A
N2125      H2157   1.041       .  S
N2126      C2133   1.358       .  A
N2126      C2134   1.361       .  A
N2127      C2132   1.368       .  A
N2127      C2131   1.359       .  A
N2127      H2158   1.042       .  S
N2128      C2135   1.334       .  A
N2128      C2136   1.330       .  A
C2129      C2137   1.391       .  A
C2129      C2145   1.400       .  A
C2130      C2146   1.402       .  A
C2130      C2138   1.383       .  A
C2131      C2139   1.393       .  A
C2131      C2148   1.452       .  A
C2132      C2147   1.448       .  A
C2132      C2140   1.388       .  A
C2133      C2145   1.420       .  A
C2133      C2141   1.384       .  A
C2134      C2148   1.430       .  A
C2134      C2142   1.389       .  A
C2135      C2143   1.379       .  A
C2135      C2146   1.384       .  A
C2136      C2144   1.391       .  A
C2136      C2147   1.386       .  A
C2137      C2138   1.387       .  A
C2137      H2149   1.082       .  S
C2138      H2150   1.082       .  S
C2139      C2140   1.412       .  A
C2139      H2151   1.082       .  S
C2140      H2152   1.082       .  S
C2141      C2142   1.365       .  A
C2141      H2153   1.081       .  S
C2142      H2154   1.079       .  S
C2143      C2144   1.366       .  A
C2143      H2155   1.079   1_554  S
C2144      H2156   1.082       .  S
C2145      C2267   1.469       .  S
C2146      C2204   1.465       .  S
N2159      C2164   1.350       .  A
N2159      C2163   1.347       .  A
N2159      H2191   1.042       .  S
N2160      C2167   1.337       .  A
N2160      C2168   1.343       .  A
N2161      C2166   1.339       .  A
N2161      C2165   1.351       .  A
N2161      H2192   1.043       .  S
N2162      C2169   1.368       .  A
N2162      C2170   1.367       .  A
C2163      C2171   1.380       .  A
C2163      C2179   1.397       .  A
C2164      C2180   1.418       .  A
C2164      C2172   1.392       .  A
C2165      C2173   1.382       .  A
C2165      C2182   1.399       .  A
C2166      C2181   1.401       .  A
C2166      C2174   1.385       .  A
C2167      C2179   1.396       .  A
C2167      C2175   1.388       .  A
C2168      C2182   1.397       .  A
C2168      C2176   1.384       .  A
C2169      C2177   1.390       .  A
C2169      C2180   1.460       .  A
C2170      C2178   1.390       .  A
C2170      C2181   1.457       .  A
C2171      C2172   1.375       .  A
C2171      H2183   1.082       .  S
C2172      H2184   1.082       .  S
C2173      C2174   1.375       .  A
C2173      H2185   1.083       .  S
C2174      H2186   1.077       .  S
C2175      C2176   1.380       .  A
C2175      H2187   1.082       .  S
C2176      H2188   1.082       .  S
C2177      C2178   1.410       .  A
C2177      H2189   1.082       .  S
C2178      H2190   1.082       .  S
C2179      C2254   1.467       .  S
C2182      C2304   1.481       .  S
C2193      C2194   1.413   1_554  A
C2193      C2198   1.403   1_565  A
C2193     Br2200   1.932       .  S
C2194      C2195   1.407   1_565  A
C2195      C2196   1.401       .  A
C2195     Br2202   1.927       .  S
C2196      C2197   1.409   1_556  A
C2196     Br2201   1.931       .  S
C2197      C2198   1.409       .  A
C2198     Br2199   1.934       .  S
C2203      C2204   1.415       .  A
C2203      C2208   1.405       .  A
C2203     Br2210   1.927       .  S
C2204      C2205   1.402   1_554  A
C2205      C2206   1.393       .  A
C2205     Br2212   1.933       .  S
C2206      C2207   1.411       .  A
C2206     Br2211   1.919       .  S
C2207      C2208   1.405   1_556  A
C2208     Br2209   1.928       .  S
C2213      C2214   1.407       .  A
C2213      C2218   1.386       .  A
C2213     Br2220   1.917   1_545  S
C2214      C2215   1.420       .  A
C2215      C2216   1.397       .  A
C2215     Br2222   1.934   1_556  S
C2216      C2217   1.395       .  A
C2216     Br2221   1.929       .  S
C2217      C2218   1.400       .  A
C2218     Br2219   1.937       .  S
C2223      C2224   1.412       .  A
C2223      C2228   1.405       .  A
C2223     Br2230   1.929       .  S
C2224      C2225   1.410       .  A
C2225      C2226   1.402       .  A
C2225     Br2232   1.930       .  S
C2226      C2227   1.410       .  A
C2226     Br2231   1.934       .  S
C2227      C2228   1.408       .  A
C2228     Br2229   1.926       .  S
C2233      C2234   1.414       .  A
C2233      C2238   1.396       .  A
C2233     Br2240   1.935       .  S
C2234      C2235   1.419       .  A
C2235      C2236   1.408       .  A
C2235     Br2242   1.934       .  S
C2236      C2237   1.411       .  A
C2236     Br2241   1.934       .  S
C2237      C2238   1.405       .  A
C2238     Br2239   1.933       .  S
C2243      C2244   1.409       .  A
C2243      C2248   1.402   1_565  A
C2243     Br2250   1.927       .  S
C2244      C2245   1.410   1_565  A
C2245      C2246   1.399       .  A
C2245     Br2252   1.932   1_455  S
C2246      C2247   1.411       .  A
C2246     Br2251   1.933       .  S
C2247      C2248   1.406       .  A
C2248     Br2249   1.927   1_545  S
C2253      C2254   1.416       .  A
C2253      C2258   1.396       .  A
C2253     Br2260   1.933       .  S
C2254      C2255   1.405       .  A
C2255      C2256   1.399       .  A
C2255     Br2262   1.932       .  S
C2256      C2257   1.409       .  A
C2256     Br2261   1.932   1_655  S
C2257      C2258   1.399       .  A
C2258     Br2259   1.934       .  S
C2263      C2264   1.413       .  A
C2263      C2268   1.404       .  A
C2263     Br2270   1.929       .  S
C2264      C2265   1.412       .  A
C2265      C2266   1.396       .  A
C2265     Br2272   1.931   1_565  S
C2266      C2267   1.401       .  A
C2266     Br2271   1.929       .  S
C2267      C2268   1.408       .  A
C2268     Br2269   1.932       .  S
C2273      C2274   1.401       .  A
C2273      C2278   1.399       .  A
C2273     Br2280   1.926       .  S
C2274      C2275   1.410       .  A
C2275      C2276   1.407       .  A
C2275     Br2282   1.933       .  S
C2276      C2277   1.413       .  A
C2276     Br2281   1.924       .  S
C2277      C2278   1.418       .  A
C2278     Br2279   1.936       .  S
C2283      C2284   1.417       .  A
C2283      C2288   1.406       .  A
C2283     Br2290   1.931       .  S
C2284      C2285   1.403   1_556  A
C2285      C2286   1.399       .  A
C2285     Br2292   1.932   1_455  S
C2286      C2287   1.416       .  A
C2286     Br2291   1.929       .  S
C2287      C2288   1.405   1_554  A
C2288     Br2289   1.928       .  S
C2293      C2294   1.410       .  A
C2293      C2298   1.394       .  A
C2293     Br2300   1.934       .  S
C2294      C2295   1.407   1_455  A
C2295      C2296   1.399   1_655  A
C2295     Br2302   1.924       .  S
C2296      C2297   1.405       .  A
C2296     Br2301   1.921   1_455  S
C2297      C2298   1.406       .  A
C2298     Br2299   1.934       .  S
C2303      C2304   1.414       .  A
C2303      C2308   1.393       .  A
C2303     Br2310   1.933       .  S
C2304      C2305   1.410       .  A
C2305      C2306   1.410       .  A
C2305     Br2312   1.927       .  S
C2306      C2307   1.411       .  A
C2306     Br2311   1.929       .  S
C2307      C2308   1.399       .  A
C2308     Br2309   1.927       .  S
C2313      C2314   1.407       .  A
C2313      C2318   1.402       .  A
C2313     Br2320   1.934       .  S
C2314      C2315   1.405   1_655  A
C2315      C2316   1.405   1_455  A
C2315     Br2322   1.924       .  S
C2316      C2317   1.410       .  A
C2316     Br2321   1.929   1_655  S
C2317      C2318   1.411       .  A
C2318     Br2319   1.928       .  S
C2323      C2324   1.412       .  A
C2323      C2328   1.396       .  A
C2323     Br2330   1.935       .  S
C2324      C2325   1.409       .  A
C2325      C2326   1.409       .  A
C2325     Br2332   1.928       .  S
C2326      C2327   1.417       .  A
C2326     Br2331   1.933       .  S
C2327      C2328   1.409       .  A
C2328     Br2329   1.934   1_655  S
C2333      C2334   1.405       .  A
C2333      C2338   1.397       .  A
C2333     Br2340   1.932       .  S
C2334      C2335   1.421       .  A
C2335      C2336   1.408       .  A
C2335     Br2342   1.930       .  S
C2336      C2337   1.403       .  A
C2336     Br2341   1.928       .  S
C2337      C2338   1.412       .  A
C2338     Br2339   1.928       .  S
C2343      C2344   1.407       .  A
C2343      C2348   1.400       .  A
C2343     Br2350   1.922       .  S
C2344      C2345   1.416       .  A
C2345      C2346   1.407   1_455  A
C2345     Br2352   1.929       .  S
C2346      C2347   1.411       .  A
C2346     Br2351   1.928       .  S
C2347      C2348   1.403   1_655  A
C2348     Br2349   1.921       .  S
C2353      C2354   1.410       .  A
C2353      C2358   1.397       .  A
C2353     Br2360   1.934   1_655  S
C2354      C2355   1.411       .  A
C2355      C2356   1.406       .  A
C2355     Br2362   1.929       .  S
C2356      C2357   1.408       .  A
C2356     Br2361   1.928       .  S
C2357      C2358   1.407       .  A
C2358     Br2359   1.934       .  S
C2363      C2364   1.408       .  A
C2363      C2368   1.403       .  A
C2363     Br2370   1.923       .  S
C2364      C2365   1.420       .  A
C2365      C2366   1.402       .  A
C2365     Br2372   1.933   1_455  S
C2366      C2367   1.404       .  A
C2366     Br2371   1.931       .  S
C2367      C2368   1.406       .  A
C2368     Br2369   1.927       .  S
C2373      C2374   1.412       .  A
C2373      C2378   1.401       .  A
C2373     Br2380   1.932       .  S
C2374      C2375   1.407       .  A
C2375      C2376   1.396       .  A
C2375     Br2382   1.931       .  S
C2376      C2377   1.408       .  A
C2376     Br2381   1.935       .  S
C2377      C2378   1.403       .  A
C2378     Br2379   1.926       .  S
C2383      C2384   1.426       .  A
C2383      C2388   1.404       .  A
C2383     Br2390   1.936       .  S
C2384      C2385   1.417       .  A
C2385      C2386   1.397       .  A
C2385     Br2392   1.936       .  S
C2386      C2387   1.405       .  A
C2386     Br2391   1.936       .  S
C2387      C2388   1.400       .  A
C2388     Br2389   1.933       .  S
C2393      C2394   1.417       .  A
C2393      C2398   1.401       .  A
C2393     Br2400   1.932       .  S
C2394      C2395   1.409       .  A
C2395      C2396   1.398       .  A
C2395     Br2402   1.926       .  S
C2396      C2397   1.405       .  A
C2396     Br2401   1.933       .  S
C2397      C2398   1.401       .  A
C2398     Br2399   1.930       .  S
C2403      C2404   1.405       .  A
C2403      C2408   1.398       .  A
C2403     Br2410   1.933       .  S
C2404      C2405   1.409       .  A
C2405      C2406   1.407       .  A
C2405     Br2412   1.929       .  S
C2406      C2407   1.410       .  A
C2406     Br2411   1.929       .  S
C2407      C2408   1.411       .  A
C2408     Br2409   1.932       .  S
C2413      C2414   1.409       .  A
C2413      C2418   1.407       .  A
C2413     Br2420   1.929       .  S
C2414      C2415   1.411       .  A
C2415      C2416   1.405       .  A
C2415     Br2422   1.928       .  S
C2416      C2417   1.405       .  A
C2416     Br2421   1.921       .  S
C2417      C2418   1.418       .  A
C2418     Br2419   1.931       .  S
C2423      C2424   1.415       .  A
C2423      C2428   1.407       .  A
C2423     Br2430   1.927       .  S
C2424      C2425   1.411       .  A
C2425      C2426   1.399       .  A
C2425     Br2432   1.926       .  S
C2426      C2427   1.405       .  A
C2426     Br2431   1.931       .  S
C2427      C2428   1.408       .  A
C2428     Br2429   1.932       .  S
C2433      C2434   1.422       .  A
C2433      C2438   1.408       .  A
C2433     Br2440   1.933       .  S
C2434      C2435   1.426       .  A
C2435      C2436   1.391       .  A
C2435     Br2442   1.941       .  S
C2436      C2437   1.394       .  A
C2436     Br2441   1.928       .  S
C2437      C2438   1.403       .  A
C2438     Br2439   1.928       .  S
C2443      C2444   1.410       .  A
C2443      C2448   1.395       .  A
C2443     Br2450   1.935       .  S
C2444      C2445   1.415       .  A
C2445      C2446   1.401       .  A
C2445     Br2452   1.933       .  S
C2446      C2447   1.402       .  A
C2446     Br2451   1.919       .  S
C2447      C2448   1.406       .  A
C2448     Br2449   1.927       .  S
C2453      C2454   1.412       .  A
C2453      C2458   1.392       .  A
C2453     Br2460   1.926       .  S
C2454      C2455   1.400       .  A
C2455      C2456   1.396       .  A
C2455     Br2462   1.931       .  S
C2456      C2457   1.413       .  A
C2456     Br2461   1.934       .  S
C2457      C2458   1.395       .  A
C2458     Br2459   1.931       .  S
C2463      C2464   1.419       .  A
C2463      C2468   1.398       .  A
C2463     Br2470   1.930       .  S
C2464      C2465   1.409       .  A
C2465      C2466   1.405       .  A
C2465     Br2472   1.931       .  S
C2466      C2467   1.418       .  A
C2466     Br2471   1.933       .  S
C2467      C2468   1.399       .  A
C2468     Br2469   1.930       .  S
C2473      C2474   1.407       .  A
C2473      C2478   1.403       .  A
C2473     Br2480   1.929       .  S
C2474      C2475   1.407       .  A
C2475      C2476   1.399       .  A
C2475     Br2482   1.930       .  S
C2476      C2477   1.405       .  A
C2476     Br2481   1.929       .  S
C2477      C2478   1.407       .  A
C2478     Br2479   1.930       .  S
C2483      C2484   1.411       .  A
C2483      C2488   1.408       .  A
C2483     Br2490   1.927       .  S
C2484      C2485   1.417       .  A
C2485      C2486   1.395       .  A
C2485     Br2492   1.929       .  S
C2486      C2487   1.403       .  A
C2486     Br2491   1.936       .  S
C2487      C2488   1.407       .  A
C2488     Br2489   1.920       .  S
C2493      C2494   1.412       .  A
C2493      C2498   1.396       .  A
C2493     Br2500   1.935       .  S
C2494      C2495   1.413       .  A
C2495      C2496   1.406       .  A
C2495     Br2502   1.928       .  S
C2496      C2497   1.404       .  A
C2496     Br2501   1.928       .  S
C2497      C2498   1.410       .  A
C2498     Br2499   1.937       .  S
C2503      C2504   1.416       .  A
C2503      C2508   1.400       .  A
C2503     Br2510   1.930       .  S
C2504      C2505   1.407       .  A
C2505      C2506   1.404       .  A
C2505     Br2512   1.927       .  S
C2506      C2507   1.415       .  A
C2506     Br2511   1.931       .  S
C2507      C2508   1.401       .  A
C2508     Br2509   1.926       .  S
C2513      C2514   1.403       .  A
C2513      C2518   1.397       .  A
C2513     Br2520   1.921       .  S
C2514      C2515   1.415       .  A
C2515      C2516   1.404       .  A
C2515     Br2522   1.935       .  S
C2516      C2517   1.409       .  A
C2516     Br2521   1.927       .  S
C2517      C2518   1.411       .  A
C2518     Br2519   1.933       .  S
C2523      C2524   1.419       .  A
C2523      C2528   1.403       .  A
C2523     Br2530   1.928       .  S
C2524      C2525   1.418       .  A
C2525      C2526   1.405       .  A
C2525     Br2532   1.936       .  S
C2526      C2527   1.404       .  A
C2526     Br2531   1.927       .  S
C2527      C2528   1.410       .  A
C2528     Br2529   1.940       .  S
C2533      C2534   1.406       .  A
C2533      C2538   1.398       .  A
C2533     Br2540   1.931       .  S
C2534      C2535   1.415       .  A
C2535      C2536   1.404       .  A
C2535     Br2542   1.934       .  S
C2536      C2537   1.407       .  A
C2536     Br2541   1.931       .  S
C2537      C2538   1.408       .  A
C2538     Br2539   1.927   1_655  S
C2543      C2544   1.426       .  A
C2543      C2548   1.406       .  A
C2543     Br2550   1.934   1_455  S
C2544      C2545   1.425       .  A
C2545      C2546   1.403       .  A
C2545     Br2552   1.938       .  S
C2546      C2547   1.402       .  A
C2546     Br2551   1.933       .  S
C2547      C2548   1.404       .  A
C2548     Br2549   1.936       .  S
C2553      C2554   1.410       .  A
C2553      C2558   1.394       .  A
C2553     Br2560   1.929       .  S
C2554      C2555   1.412       .  A
C2555      C2556   1.408       .  A
C2555     Br2562   1.923       .  S
C2556      C2557   1.408       .  A
C2556     Br2561   1.923       .  S
C2557      C2558   1.411       .  A
C2558     Br2559   1.932       .  S
C2563      C2564   1.416       .  A
C2563      C2568   1.395       .  A
C2563     Br2570   1.929       .  S
C2564      C2565   1.405       .  A
C2565      C2566   1.401       .  A
C2565     Br2572   1.929       .  S
C2566      C2567   1.413       .  A
C2566     Br2571   1.929       .  S
C2567      C2568   1.400       .  A
C2568     Br2569   1.934       .  S
C2573      C2574   1.404       .  A
C2573      C2578   1.406       .  A
C2573     Br2580   1.926       .  S
C2574      C2575   1.408       .  A
C2575      C2576   1.392       .  A
C2575     Br2582   1.938       .  S
C2576      C2577   1.409       .  A
C2576     Br2581   1.932       .  S
C2577      C2578   1.409       .  A
C2578     Br2579   1.920       .  S
C2583      C2584   1.404       .  A
C2583      C2588   1.405       .  A
C2583     Br2590   1.929       .  S
C2584      C2585   1.406       .  A
C2585      C2586   1.400       .  A
C2585     Br2592   1.933       .  S
C2586      C2587   1.415       .  A
C2586     Br2591   1.936       .  S
C2587      C2588   1.416       .  A
C2588     Br2589   1.933       .  S
C2593      C2594   1.408       .  A
C2593      C2598   1.403       .  A
C2593     Br2600   1.932       .  S
C2594      C2595   1.406       .  A
C2595      C2596   1.403       .  A
C2595     Br2602   1.929       .  S
C2596      C2597   1.415       .  A
C2596     Br2601   1.926       .  S
C2597      C2598   1.409       .  A
C2598     Br2599   1.908       .  S
C2603      C2604   1.406       .  A
C2603      C2608   1.399       .  A
C2603     Br2610   1.933       .  S
C2604      C2605   1.406       .  A
C2605      C2606   1.402       .  A
C2605     Br2612   1.931       .  S
C2606      C2607   1.408       .  A
C2606     Br2611   1.928       .  S
C2607      C2608   1.411       .  A
C2608     Br2609   1.934       .  S
C2613      C2614   1.404       .  A
C2613      C2618   1.401       .  A
C2613     Br2620   1.931       .  S
C2614      C2615   1.403       .  A
C2615      C2616   1.403       .  A
C2615     Br2622   1.934       .  S
C2616      C2617   1.422       .  A
C2616     Br2621   1.933       .  S
C2617      C2618   1.414       .  A
C2618     Br2619   1.932       .  S
C2623      C2624   1.416       .  A
C2623      C2628   1.401       .  A
C2623     Br2630   1.933       .  S
C2624      C2625   1.423       .  A
C2625      C2626   1.394       .  A
C2625     Br2632   1.941       .  S
C2626      C2627   1.397       .  A
C2626     Br2631   1.921       .  S
C2627      C2628   1.404       .  A
C2628     Br2629   1.929       .  S
C2633      C2634   1.411       .  A
C2633      C2638   1.400       .  A
C2633     Br2640   1.932       .  S
C2634      C2635   1.404       .  A
C2635      C2636   1.392       .  A
C2635     Br2642   1.908       .  S
C2636      C2637   1.402       .  A
C2636     Br2641   1.934       .  S
C2637      C2638   1.407       .  A
C2638     Br2639   1.931       .  S
C2643      C2644   1.413       .  A
C2643      C2648   1.394       .  A
C2643     Br2650   1.931       .  S
C2644      C2645   1.402       .  A
C2645      C2646   1.401       .  A
C2645     Br2652   1.931       .  S
C2646      C2647   1.418       .  A
C2646     Br2651   1.933       .  S
C2647      C2648   1.406       .  A
C2648     Br2649   1.936   1_545  S
C2653      C2654   1.409       .  A
C2653      C2658   1.392       .  A
C2653     Br2660   1.934       .  S
C2654      C2655   1.405       .  A
C2655      C2656   1.408       .  A
C2655     Br2662   1.931       .  S
C2656      C2657   1.420       .  A
C2656     Br2661   1.933   1_545  S
C2657      C2658   1.407       .  A
C2658     Br2659   1.938       .  S
C2663      C2664   1.402       .  A
C2663      C2668   1.395       .  A
C2663     Br2670   1.934       .  S
C2664      C2665   1.413       .  A
C2665      C2666   1.399       .  A
C2665     Br2672   1.936       .  S
C2666      C2667   1.408       .  A
C2666     Br2671   1.935       .  S
C2667      C2668   1.416       .  A
C2668     Br2669   1.933       .  S
C2673      C2674   1.410       .  A
C2673      C2678   1.407       .  A
C2673     Br2680   1.930       .  S
C2674      C2675   1.409       .  A
C2675      C2676   1.393       .  A
C2675     Br2682   1.929       .  S
C2676      C2677   1.411       .  A
C2676     Br2681   1.938       .  S
C2677      C2678   1.413       .  A
C2678     Br2679   1.931       .  S
C2683      C2684   1.419       .  A
C2683      C2688   1.398       .  A
C2683     Br2690   1.932       .  S
C2684      C2685   1.416       .  A
C2685      C2686   1.394       .  A
C2685     Br2692   1.936       .  S
C2686      C2687   1.401       .  A
C2686     Br2691   1.933       .  S
C2687      C2688   1.399       .  A
C2688     Br2689   1.929       .  S
C2693      C2694   1.405       .  A
C2693      C2698   1.396       .  A
C2693     Br2700   1.929       .  S
C2694      C2695   1.400       .  A
C2695      C2696   1.398       .  A
C2695     Br2702   1.932       .  S
C2696      C2697   1.417       .  A
C2696     Br2701   1.925       .  S
C2697      C2698   1.410       .  A
C2698     Br2699   1.927       .  S
C2703      C2704   1.400       .  A
C2703      C2708   1.402       .  A
C2703     Br2710   1.937       .  S
C2704      C2705   1.395       .  A
C2705      C2706   1.401       .  A
C2705     Br2712   1.931       .  S
C2706      C2707   1.432       .  A
C2706     Br2711   1.939   1_554  S
C2707      C2708   1.428       .  A
C2708     Br2709   1.935       .  S
C2713      C2714   1.413       .  A
C2713      C2718   1.391       .  A
C2713     Br2720   1.938   1_556  S
C2714      C2715   1.418       .  A
C2715      C2716   1.407       .  A
C2715     Br2722   1.931       .  S
C2716      C2717   1.404       .  A
C2716     Br2721   1.929       .  S
C2717      C2718   1.402       .  A
C2718     Br2719   1.931       .  S
C2723      C2724   1.418       .  A
C2723      C2728   1.405       .  A
C2723     Br2730   1.932       .  S
C2724      C2725   1.406   1_554  A
C2725      C2726   1.406       .  A
C2725     Br2732   1.928       .  S
C2726      C2727   1.418       .  A
C2726     Br2731   1.930       .  S
C2727      C2728   1.407   1_556  A
C2728     Br2729   1.926       .  S
C2733      C2734   1.408       .  A
C2733      C2738   1.407       .  A
C2733     Br2740   1.927       .  S
C2734      C2735   1.416       .  A
C2735      C2736   1.404       .  A
C2735     Br2742   1.934       .  S
C2736      C2737   1.406       .  A
C2736     Br2741   1.933   1_554  S
C2737      C2738   1.409       .  A
C2738     Br2739   1.929       .  S
C2743      C2744   1.416       .  A
C2743      C2748   1.398       .  A
C2743     Br2750   1.934       .  S
C2744      C2745   1.411       .  A
C2745      C2746   1.402       .  A
C2745     Br2752   1.931       .  S
C2746      C2747   1.413       .  A
C2746     Br2751   1.933       .  S
C2747      C2748   1.401       .  A
C2748     Br2749   1.930       .  S
C2753      C2754   1.405       .  A
C2753      C2758   1.394       .  A
C2753     Br2760   1.933       .  S
C2754      C2755   1.409       .  A
C2755      C2756   1.394       .  A
C2755     Br2762   1.928       .  S
C2756      C2757   1.401       .  A
C2756     Br2761   1.931       .  S
C2757      C2758   1.408       .  A
C2758     Br2759   1.933       .  S
C2763      C2764   1.403       .  A
C2763      C2768   1.403       .  A
C2763     Br2770   1.932       .  S
C2764      C2765   1.407       .  A
C2765      C2766   1.400       .  A
C2765     Br2772   1.927       .  S
C2766      C2767   1.407       .  A
C2766     Br2771   1.932       .  S
C2767      C2768   1.418       .  A
C2768     Br2769   1.933       .  S
C2773      C2774   1.423       .  A
C2773      C2778   1.405       .  A
C2773     Br2780   1.938       .  S
C2774      C2775   1.421       .  A
C2775      C2776   1.403       .  A
C2775     Br2782   1.936       .  S
C2776      C2777   1.402       .  A
C2776     Br2781   1.932       .  S
C2777      C2778   1.406       .  A
C2778     Br2779   1.936       .  S
C2783      C2784   1.414       .  A
C2783      C2788   1.398       .  A
C2783     Br2790   1.935       .  S
C2784      C2785   1.415       .  A
C2785      C2786   1.407       .  A
C2785     Br2792   1.931       .  S
C2786      C2787   1.407       .  A
C2786     Br2791   1.923       .  S
C2787      C2788   1.416       .  A
C2788     Br2789   1.939       .  S
C2793      C2794   1.402       .  A
C2793      C2798   1.394       .  A
C2793     Br2800   1.931       .  S
C2794      C2795   1.414   1_556  A
C2795      C2796   1.404   1_554  A
C2795     Br2802   1.930       .  S
C2796      C2797   1.404       .  A
C2796     Br2801   1.928   1_556  S
C2797      C2798   1.419       .  A
C2798     Br2799   1.935       .  S
C2803      C2804   1.412       .  A
C2803      C2808   1.398       .  A
C2803     Br2810   1.935   1_556  S
C2804      C2805   1.411       .  A
C2805      C2806   1.406       .  A
C2805     Br2812   1.922       .  S
C2806      C2807   1.409       .  A
C2806     Br2811   1.932       .  S
C2807      C2808   1.405       .  A
C2808     Br2809   1.925       .  S
C2813      C2814   1.402       .  A
C2813      C2818   1.403       .  A
C2813     Br2820   1.922       .  S
C2814      C2815   1.410       .  A
C2815      C2816   1.396       .  A
C2815     Br2822   1.937       .  S
C2816      C2817   1.414   1_554  A
C2816     Br2821   1.936       .  S
C2817      C2818   1.417   1_556  A
C2818     Br2819   1.934   1_554  S
C2823      C2824   1.404       .  A
C2823      C2828   1.397       .  A
C2823     Br2830   1.932       .  S
C2824      C2825   1.404       .  A
C2825      C2826   1.400       .  A
C2825     Br2832   1.926       .  S
C2826      C2827   1.413       .  A
C2826     Br2831   1.933       .  S
C2827      C2828   1.411       .  A
C2828     Br2829   1.927       .  S
C2833      C2834   1.402       .  A
C2833      C2838   1.400       .  A
C2833     Br2840   1.932       .  S
C2834      C2835   1.406       .  A
C2835      C2836   1.400       .  A
C2835     Br2842   1.931       .  S
C2836      C2837   1.409       .  A
C2836     Br2841   1.928       .  S
C2837      C2838   1.407       .  A
C2838     Br2839   1.910       .  S
C2843      C2844   1.413       .  A
C2843      C2848   1.400       .  A
C2843     Br2850   1.927       .  S
C2844      C2845   1.407       .  A
C2845      C2846   1.397       .  A
C2845     Br2852   1.921       .  S
C2846      C2847   1.405       .  A
C2846     Br2851   1.932       .  S
C2847      C2848   1.401       .  A
C2848     Br2849   1.930       .  S
C2853      C2854   1.402       .  A
C2853      C2858   1.404       .  A
C2853     Br2860   1.926       .  S
C2854      C2855   1.410       .  A
C2855      C2856   1.400       .  A
C2855     Br2862   1.925       .  S
C2856      C2857   1.410       .  A
C2856     Br2861   1.934       .  S
C2857      C2858   1.417       .  A
C2858     Br2859   1.923       .  S
C2863      C2864   1.416       .  A
C2863      C2868   1.409       .  A
C2863     Br2870   1.930       .  S
C2864      C2865   1.411       .  A
C2865      C2866   1.401       .  A
C2865     Br2872   1.930       .  S
C2866      C2867   1.413       .  A
C2866     Br2871   1.933       .  S
C2867      C2868   1.406       .  A
C2868     Br2869   1.926       .  S
C2873      C2874   1.422       .  A
C2873      C2878   1.408   1_556  A
C2873     Br2880   1.931   1_556  S
C2874      C2875   1.429       .  A
C2875      C2876   1.394       .  A
C2875     Br2882   1.939       .  S
C2876      C2877   1.392   1_556  A
C2876     Br2881   1.920       .  S
C2877      C2878   1.407       .  A
C2878     Br2879   1.925       .  S
C2883      C2884   1.423       .  A
C2883      C2888   1.398       .  A
C2883     Br2890   1.930       .  S
C2884      C2885   1.428       .  A
C2885      C2886   1.404       .  A
C2885     Br2892   1.935       .  S
C2886      C2887   1.397       .  A
C2886     Br2891   1.931       .  S
C2887      C2888   1.405       .  A
C2888     Br2889   1.943       .  S
C2893      C2894   1.416       .  A
C2893      C2898   1.397       .  A
C2893     Br2900   1.934       .  S
C2894      C2895   1.409       .  A
C2895      C2896   1.402       .  A
C2895     Br2902   1.931       .  S
C2896      C2897   1.407       .  A
C2896     Br2901   1.923       .  S
C2897      C2898   1.404       .  A
C2898     Br2899   1.933       .  S
C2903      C2904   1.405       .  A
C2903      C2908   1.403       .  A
C2903     Br2910   1.935       .  S
C2904      C2905   1.400       .  A
C2905      C2906   1.401       .  A
C2905     Br2912   1.936       .  S
C2906      C2907   1.426       .  A
C2906     Br2911   1.932       .  S
C2907      C2908   1.418       .  A
C2908     Br2909   1.935       .  S
C2913      C2914   1.403       .  A
C2913      C2918   1.401       .  A
C2913     Br2920   1.927       .  S
C2914      C2915   1.411       .  A
C2915      C2916   1.398       .  A
C2915     Br2922   1.936       .  S
C2916      C2917   1.404       .  A
C2916     Br2921   1.923       .  S
C2917      C2918   1.416       .  A
C2918     Br2919   1.937       .  S
C2923      C2924   1.404       .  A
C2923      C2928   1.397       .  A
C2923     Br2930   1.935       .  S
C2924      C2925   1.406   1_565  A
C2925      C2926   1.402   1_545  A
C2925     Br2932   1.926       .  S
C2926      C2927   1.405       .  A
C2926     Br2931   1.924   1_565  S
C2927      C2928   1.414       .  A
C2928     Br2929   1.927       .  S
C2933      C2934   1.414       .  A
C2933      C2938   1.409       .  A
C2933     Br2940   1.931   1_545  S
C2934      C2935   1.405       .  A
C2935      C2936   1.396       .  A
C2935     Br2942   1.933       .  S
C2936      C2937   1.412       .  A
C2936     Br2941   1.934       .  S
C2937      C2938   1.408       .  A
C2938     Br2939   1.929       .  S
C2943      C2944   1.411       .  A
C2943      C2948   1.396       .  A
C2943     Br2950   1.925       .  S
C2944      C2945   1.405       .  A
C2945      C2946   1.408       .  A
C2945     Br2952   1.931       .  S
C2946      C2947   1.420       .  A
C2946     Br2951   1.927       .  S
C2947      C2948   1.405       .  A
C2948     Br2949   1.934   1_565  S
C2953      C2954   1.401       .  A
C2953      C2958   1.399       .  A
C2953     Br2960   1.926       .  S
C2954      C2955   1.411       .  A
C2955      C2956   1.401       .  A
C2955     Br2962   1.934       .  S
C2956      C2957   1.412       .  A
C2956     Br2961   1.934       .  S
C2957      C2958   1.417       .  A
C2958     Br2959   1.935       .  S
C2963      C2964   1.408       .  A
C2963      C2968   1.402       .  A
C2963     Br2970   1.930       .  S
C2964      C2965   1.404       .  A
C2965      C2966   1.401       .  A
C2965     Br2972   1.929   1_565  S
C2966      C2967   1.409       .  A
C2966     Br2971   1.929       .  S
C2967      C2968   1.404       .  A
C2968     Br2969   1.929       .  S
C2973      C2974   1.412       .  A
C2973      C2978   1.404       .  A
C2973     Br2980   1.927       .  S
C2974      C2975   1.411   1_545  A
C2975      C2976   1.401       .  A
C2975     Br2982   1.928       .  S
C2976      C2977   1.416       .  A
C2976     Br2981   1.935       .  S
C2977      C2978   1.405   1_565  A
C2978     Br2979   1.928       .  S
C2983      C2984   1.414       .  A
C2983      C2988   1.401       .  A
C2983     Br2990   1.935       .  S
C2984      C2985   1.417       .  A
C2985      C2986   1.403       .  A
C2985     Br2992   1.930       .  S
C2986      C2987   1.402       .  A
C2986     Br2991   1.929       .  S
C2987      C2988   1.404       .  A
C2988     Br2989   1.917       .  S
C2993      C2994   1.409       .  A
C2993      C2998   1.406       .  A
C2993     Br3000   1.931       .  S
C2994      C2995   1.411       .  A
C2995      C2996   1.401       .  A
C2995     Br3002   1.933       .  S
C2996      C2997   1.406       .  A
C2996     Br3001   1.930       .  S
C2997      C2998   1.414       .  A
C2998     Br2999   1.934       .  S
C3003      C3004   1.405       .  A
C3003      C3008   1.399       .  A
C3003     Br3010   1.935       .  S
C3004      C3005   1.405       .  A
C3005      C3006   1.399       .  A
C3005     Br3012   1.931       .  S
C3006      C3007   1.411       .  A
C3006     Br3011   1.932       .  S
C3007      C3008   1.411       .  A
C3008     Br3009   1.931       .  S
C3013      C3014   1.413       .  A
C3013      C3018   1.408       .  A
C3013     Br3020   1.925       .  S
C3014      C3015   1.408       .  A
C3015      C3016   1.394       .  A
C3015     Br3022   1.935       .  S
C3016      C3017   1.408       .  A
C3016     Br3021   1.917       .  S
C3017      C3018   1.408       .  A
C3018     Br3019   1.922       .  S
C3023      C3024   1.416       .  A
C3023      C3028   1.395       .  A
C3023     Br3030   1.935       .  S
C3024      C3025   1.411       .  A
C3025      C3026   1.399       .  A
C3025     Br3032   1.931       .  S
C3026      C3027   1.404       .  A
C3026     Br3031   1.928       .  S
C3027      C3028   1.406       .  A
C3028     Br3029   1.935       .  S
C3033      C3034   1.412       .  A
C3033      C3038   1.411       .  A
C3033     Br3040   1.929       .  S
C3034      C3035   1.419       .  A
C3035      C3036   1.399       .  A
C3035     Br3042   1.933       .  S
C3036      C3037   1.401       .  A
C3036     Br3041   1.933       .  S
C3037      C3038   1.409       .  A
C3038     Br3039   1.929   1_565  S
C3043      C3044   1.415       .  A
C3043      C3048   1.403       .  A
C3043     Br3050   1.933   1_455  S
C3044      C3045   1.409       .  A
C3045      C3046   1.401       .  A
C3045     Br3052   1.928       .  S
C3046      C3047   1.406       .  A
C3046     Br3051   1.923       .  S
C3047      C3048   1.404       .  A
C3048     Br3049   1.928       .  S
C3053      C3054   1.410       .  A
C3053      C3058   1.404       .  A
C3053     Br3060   1.930       .  S
C3054      C3055   1.416   1_655  A
C3055      C3056   1.402       .  A
C3055     Br3062   1.933       .  S
C3056      C3057   1.405   1_455  A
C3056     Br3061   1.924       .  S
C3057      C3058   1.413       .  A
C3058     Br3059   1.931       .  S
C3063      C3064   1.410       .  A
C3063      C3068   1.401       .  A
C3063     Br3070   1.918       .  S
C3064      C3065   1.413       .  A
C3065      C3066   1.403       .  A
C3065     Br3072   1.933       .  S
C3066      C3067   1.408       .  A
C3066     Br3071   1.931       .  S
C3067      C3068   1.406       .  A
C3068     Br3069   1.934       .  S
C3073      C3074   1.414       .  A
C3073      C3078   1.401       .  A
C3073     Br3080   1.933   1_554  S
C3074      C3075   1.411       .  A
C3075      C3076   1.403       .  A
C3075     Br3082   1.922       .  S
C3076      C3077   1.409       .  A
C3076     Br3081   1.936       .  S
C3077      C3078   1.405       .  A
C3078     Br3079   1.931       .  S
C3083      C3084   1.422       .  A
C3083      C3088   1.409       .  A
C3083     Br3090   1.931       .  S
C3084      C3085   1.417       .  A
C3085      C3086   1.401       .  A
C3085     Br3092   1.934   1_556  S
C3086      C3087   1.407       .  A
C3086     Br3091   1.929       .  S
C3087      C3088   1.403       .  A
C3088     Br3089   1.928       .  S
C3093      C3094   1.411       .  A
C3093      C3098   1.401       .  A
C3093     Br3100   1.927       .  S
C3094      C3095   1.415       .  A
C3095      C3096   1.392       .  A
C3095     Br3102   1.936   1_545  S
C3096      C3097   1.400       .  A
C3096     Br3101   1.933       .  S
C3097      C3098   1.404       .  A
C3098     Br3099   1.925       .  S
C3103      C3104   1.412       .  A
C3103      C3108   1.394       .  A
C3103     Br3110   1.939   1_556  S
C3104      C3105   1.420       .  A
C3105      C3106   1.410       .  A
C3105     Br3112   1.931       .  S
C3106      C3107   1.414       .  A
C3106     Br3111   1.934       .  S
C3107      C3108   1.404       .  A
C3108     Br3109   1.916   1_556  S
C3113      C3114   1.416   1_545  A
C3113      C3118   1.403   1_545  A
C3113     Br3120   1.932       .  S
C3114      C3115   1.417       .  A
C3115      C3116   1.399       .  A
C3115     Br3122   1.938       .  S
C3116      C3117   1.413       .  A
C3116     Br3121   1.935       .  S
C3117      C3118   1.406       .  A
C3118     Br3119   1.933   1_565  S
C3123      C3124   1.405       .  A
C3123      C3128   1.400       .  A
C3123     Br3130   1.929       .  S
C3124      C3125   1.413       .  A
C3125      C3126   1.395       .  A
C3125     Br3132   1.930       .  S
C3126      C3127   1.401       .  A
C3126     Br3131   1.932       .  S
C3127      C3128   1.410       .  A
C3128     Br3129   1.930       .  S
C3133      C3134   1.414       .  A
C3133      C3138   1.399       .  A
C3133     Br3140   1.936       .  S
C3134      C3135   1.416       .  A
C3135      C3136   1.406       .  A
C3135     Br3142   1.930       .  S
C3136      C3137   1.407       .  A
C3136     Br3141   1.931       .  S
C3137      C3138   1.407       .  A
C3138     Br3139   1.932       .  S
C3143      C3144   1.410       .  A
C3143      C3148   1.403       .  A
C3143     Br3150   1.932       .  S
C3144      C3145   1.410       .  A
C3145      C3146   1.400       .  A
C3145     Br3152   1.933       .  S
C3146      C3147   1.415       .  A
C3146     Br3151   1.934       .  S
C3147      C3148   1.407       .  A
C3148     Br3149   1.919       .  S
