geometry optimzed in LAMMPS
_audit_creation_date              2020-11-30 
_audit_creation_method            'lammps2cif' 
_symmetry_space_group_name_H-M    'P1' 
_symmetry_Int_Tables_number       1 
_symmetry_cell_setting            triclinic 
loop_ 
_symmetry_equiv_pos_as_xyz 
  x,y,z 
_cell_length_a                    55.41748691 
_cell_length_b                    55.523136618161516 
_cell_length_c                    55.808368227016 
_cell_angle_alpha                 90.37812212904767 
_cell_angle_beta                  90.256066237251 
_cell_angle_gamma                 90.3552998862127 
loop_ 
_atom_site_label 
_atom_site_type_symbol 
_atom_site_fract_x 
_atom_site_fract_y 
_atom_site_fract_z 
_atom_site_charge 
O1          O  0.50387795  0.47097600  0.43399743    -0.78400
C2          C  0.44487420  0.52734444  0.44687971     0.82700
O3          O  0.53535768  0.52905897  0.48754696    -0.79500
O4          O  0.45214749  0.52463957  0.52023572    -0.80900
O5          O  0.46015795  0.44195689  0.50714720    -0.80700
O6          O  0.50264471  0.44093916  0.46009837    -0.79400
Zn7        Zn  0.49185263  0.49973491  0.45294616     1.55700
O8          O  0.43364422  0.47180814  0.50838117    -0.80800
Cd9        Cd  0.48949064  0.45746340  0.49029847     1.59700
Cd10       Cd  0.50927284  0.51101346  0.50804216     1.59600
O11         O  0.51622359  0.45163161  0.51430583    -0.80800
O12         O  0.48629727  0.49253319  0.48607732    -1.91300
Cd13       Cd  0.45237815  0.50014129  0.49334312     1.59900
O14         O  0.52763147  0.48693114  0.53012278    -0.80700
O15         O  0.43593579  0.51869456  0.46599329    -0.79400
C16         C  0.53669351  0.52984196  0.46472737     0.83200
C17         C  0.50964451  0.44971998  0.44023987     0.82800
O18         O  0.46529336  0.52042135  0.43897082    -0.78300
C19         C  0.44029274  0.45074367  0.51439609     0.83600
O20         O  0.52074784  0.52015286  0.45145493    -0.78400
C21         C  0.52876199  0.46399740  0.52899287     0.83800
C22         C  0.46720021  0.53697968  0.53235695     0.84100
O23         O  0.49000020  0.53514340  0.52970288    -0.80800
O24         O  0.47552364  0.19544625  0.21933086    -0.78400
C25         C  0.54395067  0.20256621  0.26317311     0.82700
O26         O  0.46174462  0.25156996  0.28266849    -0.79500
O27         O  0.54373385  0.27473326  0.26504678    -0.80900
O28         O  0.51968127  0.26460467  0.18294570    -0.80700
O29         O  0.47512169  0.22050740  0.18854537    -0.79400
Zn30       Zn  0.49370653  0.21369490  0.24499809     1.55700
O31         O  0.55036147  0.26700754  0.20869686    -0.80800
Cd32       Cd  0.49205983  0.25026772  0.20285359     1.59700
Cd33       Cd  0.48350547  0.27046144  0.25793787     1.59600
O34         O  0.46633615  0.27595090  0.20051189    -0.80800
O35         O  0.50101197  0.24631690  0.23680370    -1.91300
Cd36       Cd  0.53652766  0.25039338  0.23887155     1.59900
O37         O  0.46174201  0.29291005  0.23655305    -0.80700
O38         O  0.55370783  0.22054471  0.25278541    -0.79400
C39         C  0.46006972  0.22873159  0.28507176     0.83200
C40         C  0.46839609  0.20100691  0.19835774     0.82800
O41         O  0.52181297  0.19730778  0.26005203    -0.78300
C42         C  0.54048758  0.27254408  0.18878992     0.83600
O43         O  0.47125241  0.21423660  0.27161913    -0.78400
C44         C  0.45677793  0.29153378  0.21416225     0.83800
C45         C  0.53213076  0.28929525  0.27815674     0.84100
O46         O  0.50913266  0.29103773  0.27731826    -0.80800
C47         C  0.78608049  0.76782034  0.78828635     0.80400
N48         N  0.76679517  0.77943967  0.79779188    -0.77900
C49         C  0.75737704  0.79927800  0.78719350     0.82800
N50         N  0.76751211  0.80749087  0.76664019    -0.77900
C51         C  0.78682209  0.79625909  0.75668069     0.82900
N52         N  0.79616891  0.77657744  0.76782250    -0.79600
C53         C  0.75915271  0.96130463  0.94967997     0.80400
N54         N  0.76915239  0.95275077  0.97014484    -0.77900
C55         C  0.78786386  0.96431068  0.98116162     0.82800
N56         N  0.79663992  0.98493981  0.97141330    -0.77900
C57         C  0.78685737  0.99396460  0.95099765     0.82900
N58         N  0.76829809  0.98191131  0.94022441    -0.79600
C59         C  0.93948439  0.80203001  0.97638185     0.80400
N60         N  0.96139207  0.80967799  0.96855657    -0.77900
C61         C  0.97329916  0.79748930  0.95105363     0.82800
N62         N  0.96265106  0.77749424  0.94125113    -0.77900
C63         C  0.94073578  0.76948684  0.94895390     0.82900
N64         N  0.92938085  0.78195233  0.96654941    -0.79600
C65         C  0.94750285  0.95270488  0.76534582     0.80400
N66         N  0.96559395  0.94168103  0.77762532    -0.77900
C67         C  0.97463704  0.95126943  0.79836418     0.82800
N68         N  0.96546225  0.97232294  0.80671859    -0.77900
C69         C  0.94749936  0.98372606  0.79476151     0.82900
N70         N  0.93852412  0.97368411  0.77427054    -0.79600
N71         N  0.06293923  0.87216136  0.87676794    -0.36500
N72         N  0.09862000  0.89956936  0.84996654    -0.57000
N73         N  0.13702773  0.87511249  0.87644152    -0.36500
N74         N  0.10142454  0.84551408  0.90088776    -0.57000
C75         C  0.04862573  0.88286482  0.86026417     0.27100
C76         C  0.05003155  0.85411344  0.88683461     0.27100
C77         C  0.14980766  0.88608061  0.85905895     0.27100
C78         C  0.15136017  0.85804039  0.88598871     0.27100
C79         C  0.07862844  0.91193589  0.84374416     0.35700
C80         C  0.11777226  0.91310247  0.84329215     0.35700
C81         C  0.08227394  0.83674632  0.91305319     0.35700
C82         C  0.12144066  0.83863891  0.91294776     0.35700
C83         C  0.02625077  0.87158078  0.85996181    -0.21700
C84         C  0.02705204  0.85364048  0.87678400    -0.21700
C85         C  0.17262075  0.87599517  0.85768686    -0.21700
C86         C  0.17360965  0.85833105  0.87472116    -0.21700
C87         C  0.08513489  0.93341873  0.83293153    -0.22800
C88         C  0.10996403  0.93408390  0.83251583    -0.22800
C89         C  0.09021098  0.82384641  0.93274899    -0.22800
C90         C  0.11501888  0.82511952  0.93272017    -0.22800
C91         C  0.05466558  0.90331400  0.84632004    -0.18200
C92         C  0.05783552  0.83901496  0.90580946    -0.18200
C93         C  0.14542039  0.84300443  0.90538644    -0.18100
C94         C  0.14213784  0.90602611  0.84551565    -0.18100
H95         H  0.01078333  0.87598070  0.84896052     0.14800
H96         H  0.01216779  0.84181831  0.88117227     0.14800
H97         H  0.18719324  0.88103552  0.84584851     0.14800
H98         H  0.18903374  0.84707816  0.87846588     0.14800
H99         H  0.07322903  0.94699540  0.82576271     0.13000
H100        H  0.12100591  0.94829254  0.82503825     0.13000
H101        H  0.07931472  0.81427796  0.94565778     0.13000
H102        H  0.12696914  0.81674241  0.94555291     0.13000
H103        H  0.08010025  0.87777808  0.88191572     0.26300
H104        H  0.12004992  0.88006657  0.88247247     0.26300
N105        N  0.86319651  0.88161851  0.06489274    -0.36500
N106        N  0.89120611  0.85483575  0.10010693    -0.57000
N107        N  0.86894344  0.88319763  0.13797586    -0.36500
N108        N  0.83841797  0.90737349  0.10289779    -0.57000
C109        C  0.87239823  0.86394551  0.05090348     0.27100
C110        C  0.84522765  0.89221093  0.05235422     0.27100
C111        C  0.87991503  0.86580889  0.15076302     0.27100
C112        C  0.85186937  0.89285565  0.15223846     0.27100
C113        C  0.90251219  0.84767109  0.07990478     0.35700
C114        C  0.90566543  0.84876342  0.11865846     0.35700
C115        C  0.83035415  0.92013864  0.08399942     0.35700
C116        C  0.83292637  0.92026630  0.12270625     0.35700
C117        C  0.86006102  0.86333142  0.02919288    -0.21700
C118        C  0.84305786  0.88126192  0.03005443    -0.21700
C119        C  0.86987558  0.86459311  0.17345661    -0.21700
C120        C  0.85210214  0.88162895  0.17435247    -0.21700
C121        C  0.92427755  0.83688336  0.08569934    -0.22800
C122        C  0.92615103  0.83736917  0.11030447    -0.22800
C123        C  0.81935408  0.94109493  0.09184057    -0.22800
C124        C  0.82098389  0.94117239  0.11642273    -0.22800
C125        C  0.89274135  0.84956190  0.05647846    -0.18200
C126        C  0.83180992  0.91249934  0.05987285    -0.18200
C127        C  0.83708577  0.91251375  0.14639933    -0.18100
C128        C  0.89969711  0.85200981  0.14302875    -0.18100
H129        H  0.86322313  0.85144862  0.01409441     0.14800
H130        H  0.83062570  0.88584298  0.01580323     0.14800
H131        H  0.87491820  0.85278210  0.18796717     0.14800
H132        H  0.84078356  0.88546751  0.18964891     0.14800
H133        H  0.93724781  0.82910795  0.07349440     0.13000
H134        H  0.94081101  0.83009893  0.12084069     0.13000
H135        H  0.81083009  0.95474957  0.08100632     0.13000
H136        H  0.81393767  0.95486810  0.12832851     0.13000
H137        H  0.86989961  0.88724622  0.08134572     0.26300
H138        H  0.87386960  0.88916415  0.12111669     0.26300
N139        N  0.86897711  0.87601012  0.67415130    -0.36500
N140        N  0.84045630  0.85325167  0.63580077    -0.57000
N141        N  0.86743081  0.88122016  0.60055802    -0.36500
N142        N  0.89350146  0.90637424  0.63897303    -0.57000
C143        C  0.85217778  0.86401490  0.68712998     0.27100
C144        C  0.87963619  0.89253089  0.68884366     0.27100
C145        C  0.84980645  0.87175946  0.58647505     0.27100
C146        C  0.87792981  0.89925169  0.58813129     0.27100
C147        C  0.83327549  0.83929719  0.65429901     0.35700
C148        C  0.83224427  0.84248559  0.61546113     0.35700
C149        C  0.90597641  0.91316346  0.65882625     0.35700
C150        C  0.90567290  0.91518334  0.61992476     0.35700
C151        C  0.85231837  0.87292888  0.71041711    -0.21700
C152        C  0.86967375  0.89073779  0.71153382    -0.21700
C153        C  0.84918426  0.88384447  0.56481589    -0.21700
C154        C  0.86691577  0.90119790  0.56586433    -0.21700
C155        C  0.82013377  0.81973606  0.64563757    -0.22800
C156        C  0.81942171  0.82179858  0.62108842    -0.22800
C157        C  0.92595564  0.92676350  0.65235837    -0.22800
C158        C  0.92584376  0.92790894  0.62773395    -0.22800
C159        C  0.83740781  0.84454278  0.67894696    -0.18200
C160        C  0.89885473  0.90843033  0.68273428    -0.18200
C161        C  0.89802835  0.91315986  0.59569689    -0.18100
C162        C  0.83528322  0.85155287  0.59194213    -0.18100
H163        H  0.84120924  0.86705852  0.72519988     0.14800
H164        H  0.87443137  0.90109941  0.72736694     0.14800
H165        H  0.83734020  0.88037479  0.54969569     0.14800
H166        H  0.87131762  0.91371136  0.55172618     0.14800
H167        H  0.81181907  0.80548990  0.65591869     0.13000
H168        H  0.81043517  0.80950072  0.60879317     0.13000
H169        H  0.93916231  0.93513782  0.66413388     0.13000
H170        H  0.93888687  0.93737621  0.61684493     0.13000
H171        H  0.87377886  0.87222858  0.65662806     0.26300
H172        H  0.87302756  0.87472814  0.61701174     0.26300
N173        N  0.86327569  0.68147761  0.86906892    -0.36500
N174        N  0.83396614  0.64447967  0.84576871    -0.57000
N175        N  0.86150280  0.60766536  0.87141014    -0.36500
N176        N  0.88838249  0.64470090  0.89710529    -0.57000
C177        C  0.84622967  0.69513742  0.85835118     0.27100
C178        C  0.87411823  0.69528294  0.88610609     0.27100
C179        C  0.84340309  0.59418897  0.86199250     0.27100
C180        C  0.87221310  0.59431152  0.88856476     0.27100
C181        C  0.82703466  0.66359492  0.83253527     0.35700
C182        C  0.82583232  0.62454250  0.83417851     0.35700
C183        C  0.90140896  0.66431825  0.90373495     0.35700
C184        C  0.90099792  0.62520484  0.90423592     0.35700
C185        C  0.84638423  0.71796883  0.86855175    -0.21700
C186        C  0.86392255  0.71805628  0.88607857    -0.21700
C187        C  0.84267628  0.57196481  0.87320235    -0.21700
C188        C  0.86082876  0.57206994  0.89001395    -0.21700
C189        C  0.81402445  0.65578875  0.81266591    -0.22800
C190        C  0.81320092  0.63104764  0.81373828    -0.22800
C191        C  0.92229664  0.65727471  0.91544622    -0.22800
C192        C  0.92206730  0.63247327  0.91570282    -0.22800
C193        C  0.83146308  0.68801291  0.83871798    -0.18200
C194        C  0.89398187  0.68845515  0.90060805    -0.18200
C195        C  0.89287371  0.60105386  0.90193458    -0.18100
C196        C  0.82885541  0.60060527  0.84226000    -0.18100
H197        H  0.83512570  0.73306794  0.86375706     0.14800
H198        H  0.86880859  0.73330035  0.89731226     0.14800
H199        H  0.83056419  0.55703816  0.86945896     0.14800
H200        H  0.86532894  0.55729975  0.90174518     0.14800
H201        H  0.80590164  0.66676425  0.79889232     0.13000
H202        H  0.80429682  0.61920910  0.80094837     0.13000
H203        H  0.93616465  0.66880619  0.92312368     0.13000
H204        H  0.93566252  0.62110299  0.92369032     0.13000
H205        H  0.86828732  0.66424540  0.86400742     0.26300
H206        H  0.86726804  0.62428494  0.86526016     0.26300
N207        N  0.67401208  0.87981377  0.86666953    -0.36500
N208        N  0.63556663  0.85000698  0.84661966    -0.57000
N209        N  0.60052024  0.87843057  0.87397012    -0.36500
N210        N  0.63893842  0.90575834  0.89620338    -0.57000
C211        C  0.68689791  0.86215827  0.85590625     0.27100
C212        C  0.68881804  0.89108443  0.88258100     0.27100
C213        C  0.58685797  0.85976608  0.86622897     0.27100
C214        C  0.58859065  0.88874960  0.89238291     0.27100
C215        C  0.65373418  0.84361200  0.83182711     0.35700
C216        C  0.61480480  0.84311884  0.83570946     0.35700
C217        C  0.65889933  0.91885912  0.90136413     0.35700
C218        C  0.61995535  0.91830594  0.90474252     0.35700
C219        C  0.71026248  0.86240556  0.86493194    -0.21700
C220        C  0.71149963  0.88068582  0.88166085    -0.21700
C221        C  0.56600239  0.85817968  0.87979740    -0.21700
C222        C  0.56711095  0.87651209  0.89636568    -0.21700
C223        C  0.64447609  0.83238748  0.81149025    -0.22800
C224        C  0.61976219  0.83201511  0.81398545    -0.22800
C225        C  0.65259435  0.93974566  0.91354509    -0.22800
C226        C  0.62787172  0.93947389  0.91552152    -0.22800
C227        C  0.67855154  0.84674688  0.83719712    -0.18200
C228        C  0.68279527  0.91121665  0.89708221    -0.18200
C229        C  0.59588749  0.90975072  0.90473501    -0.18100
C230        C  0.59160540  0.84562779  0.84581819    -0.18100
H231        H  0.72498569  0.85073106  0.85988018     0.14800
H232        H  0.72739204  0.88580729  0.89186520     0.14800
H233        H  0.55132647  0.84537204  0.87769813     0.14800
H234        H  0.55350502  0.88055556  0.90962851     0.14800
H235        H  0.65450244  0.82505790  0.79655697     0.13000
H236        H  0.60692890  0.82431657  0.80137405     0.13000
H237        H  0.66457189  0.95356713  0.92058585     0.13000
H238        H  0.61703189  0.95294759  0.92443818     0.13000
H239        H  0.65650748  0.88478704  0.86245204     0.26300
H240        H  0.61612389  0.88477923  0.86588593     0.26300
N241        N  0.86926019  0.07398774  0.86873146    -0.36500
N242        N  0.84619877  0.11173727  0.89662433    -0.57000
N243        N  0.87531692  0.14699446  0.87193314    -0.36500
N244        N  0.90058847  0.10937910  0.84608336    -0.57000
C245        C  0.85861079  0.06123724  0.88641000     0.27100
C246        C  0.88671783  0.05998927  0.85923373     0.27100
C247        C  0.86576500  0.16054441  0.88961594     0.27100
C248        C  0.89451160  0.15924598  0.86344112     0.27100
C249        C  0.83158257  0.09305808  0.90196916     0.35700
C250        C  0.83428488  0.13189884  0.90297117     0.35700
C251        C  0.90547444  0.08998347  0.83226095     0.35700
C252        C  0.90879722  0.12885085  0.83415637     0.35700
C253        C  0.86947360  0.03887716  0.88820786    -0.21700
C254        C  0.88718679  0.03806402  0.87099528    -0.21700
C255        C  0.87903705  0.18163681  0.89243691    -0.21700
C256        C  0.89724082  0.18081025  0.87587444    -0.21700
C257        C  0.81029297  0.10135312  0.91195187    -0.22800
C258        C  0.81203256  0.12607235  0.91261257    -0.22800
C259        C  0.91712191  0.09711430  0.81152218    -0.22800
C260        C  0.91924373  0.12183107  0.81273981    -0.22800
C261        C  0.83823006  0.06868247  0.89968866    -0.18200
C262        C  0.90099947  0.06592497  0.83913288    -0.18200
C263        C  0.90791791  0.15265966  0.84310531    -0.18100
C264        C  0.84425484  0.15524686  0.90184095    -0.18100
H265        H  0.86479662  0.02447936  0.90034903     0.14800
H266        H  0.89885203  0.02293257  0.86731109     0.14800
H267        H  0.87564967  0.19633123  0.90478619     0.14800
H268        H  0.91058068  0.19477812  0.87288592     0.14800
H269        H  0.79525009  0.09070649  0.91835520     0.13000
H270        H  0.79867048  0.13831757  0.91968543     0.13000
H271        H  0.92356322  0.08569685  0.79714944     0.13000
H272        H  0.92761637  0.13329260  0.79950360     0.13000
H273        H  0.86378156  0.09062171  0.86231669     0.26300
H274        H  0.86794676  0.13130487  0.86470536     0.26300
O275        O  0.26666651  0.55740053  0.22058933    -0.78400
C276        C  0.20000758  0.56291969  0.26774534     0.82700
O277        O  0.28146945  0.51439165  0.28868686    -0.79500
O278        O  0.20271049  0.48652590  0.28328295    -0.80900
O279        O  0.20998402  0.49193959  0.19720076    -0.80700
O280        O  0.26071502  0.52989394  0.19216087    -0.79400
Zn281      Zn  0.24717517  0.54615968  0.24824679     1.55700
O282        O  0.18558546  0.49084276  0.22873511    -0.80800
Cd283      Cd  0.24192167  0.50425340  0.21148195     1.59700
Cd284      Cd  0.26056427  0.49177334  0.26598024     1.59600
O285        O  0.26417567  0.47560054  0.20798910    -0.80800
O286        O  0.23899277  0.51276535  0.24572828    -1.91300
Cd287      Cd  0.20490264  0.50928613  0.25500473     1.59900
O288        O  0.28292057  0.47117201  0.24317020    -0.80700
O289        O  0.19122175  0.54164460  0.26740754    -0.79400
C290        C  0.28140898  0.53742821  0.28956585     0.83200
C291        C  0.27120753  0.54888347  0.19991167     0.82800
O292        O  0.22002095  0.56779833  0.25771185    -0.78300
C293        C  0.19070815  0.48467128  0.20732767     0.83600
O294        O  0.26906390  0.54992766  0.27523806    -0.78400
C295        C  0.28047129  0.46617395  0.22084585     0.83800
C296        C  0.21636580  0.47088169  0.29267884     0.84100
O297        O  0.23870298  0.46899620  0.28720360    -0.80800
O298        O  0.26458165  0.19338076  0.51855206    -0.78400
C299        C  0.20205800  0.19850767  0.46647263     0.82700
O300        O  0.28773475  0.24905066  0.46002449    -0.79500
O301        O  0.20651261  0.27335318  0.46233050    -0.80900
O302        O  0.21083595  0.26079478  0.54713803    -0.80700
O303        O  0.25438814  0.21548141  0.55027946    -0.79400
Zn304      Zn  0.24988274  0.21042592  0.49051465     1.55700
O305        O  0.18812769  0.26537890  0.51471567    -0.80800
Cd306      Cd  0.24149821  0.24558207  0.53347670     1.59700
Cd307      Cd  0.26338502  0.26720009  0.48273227     1.59600
O308        O  0.26624763  0.27075953  0.54279485    -0.80800
O309        O  0.24127539  0.24280759  0.49819967    -1.91300
Cd310      Cd  0.20757850  0.24818523  0.48828862     1.59900
O311        O  0.28265646  0.28577950  0.50959523    -0.80700
O312        O  0.19228867  0.21823136  0.47273232    -0.79400
C313        C  0.28981897  0.22631575  0.45691992     0.83200
C314        C  0.26588274  0.19808695  0.54085837     0.82800
O315        O  0.22326168  0.19292382  0.47328535    -0.78300
C316        C  0.19280012  0.27008762  0.53662759     0.83600
O317        O  0.27634343  0.21124109  0.46740644    -0.78400
C318        C  0.28065613  0.28500989  0.53238439     0.83800
C319        C  0.22022938  0.29076183  0.45677196     0.84100
O320        O  0.24224718  0.29221452  0.46367463    -0.80800
O321        O  0.50409971  0.78144695  0.80077992    -0.78400
C322        C  0.44410128  0.73009098  0.78578533     0.82700
O323        O  0.53746566  0.72254778  0.74964713    -0.79500
O324        O  0.45644080  0.72583955  0.71491866    -0.80900
O325        O  0.46665350  0.81210868  0.72839352    -0.80700
O326        O  0.50969934  0.81021980  0.77389517    -0.79400
Zn327      Zn  0.49349162  0.75330644  0.78071415     1.55700
O328        O  0.44176446  0.78176258  0.71989167    -0.80800
Cd329      Cd  0.49553606  0.79485193  0.74351814     1.59700
Cd330      Cd  0.51380347  0.74102803  0.72683822     1.59600
O331        O  0.52114813  0.80023364  0.71849112    -0.80800
O332        O  0.49036084  0.76004063  0.74734152    -1.91300
Cd333      Cd  0.45642111  0.75335821  0.73858231     1.59900
O334        O  0.53372145  0.76459170  0.70484198    -0.80700
O335        O  0.43621867  0.73868081  0.76616099    -0.79400
C336        C  0.53653675  0.72103443  0.77245591     0.83200
C337        C  0.51247266  0.80195085  0.79489217     0.82800
O338        O  0.46523351  0.73520427  0.79330104    -0.78300
C339        C  0.44845405  0.80360016  0.71717787     0.83600
O340        O  0.52053358  0.73146605  0.78475112    -0.78400
C341        C  0.53393741  0.78762241  0.70452143     0.83800
C342        C  0.47149894  0.71291133  0.70376701     0.84100
O343        O  0.49433019  0.71599405  0.70561471    -0.80800
O344        O  0.19590157  0.72424749  0.97980293    -0.78400
C345        C  0.19952061  0.77566180  0.04298323     0.82700
O346        O  0.24139800  0.79478625  0.95979678    -0.79500
O347        O  0.27364122  0.78393253  0.03985540    -0.80900
O348        O  0.26658037  0.69989826  0.02503501    -0.80700
O349        O  0.22644578  0.69879340  0.97812173    -0.79400
Zn350      Zn  0.21090444  0.75364420  0.99484379     1.55700
O351        O  0.26781591  0.72876777  0.05266371    -0.80800
Cd352      Cd  0.25305643  0.71724871  0.99580951     1.59700
Cd353      Cd  0.26495354  0.77391435  0.98113793     1.59600
O354        O  0.28060003  0.71634218  0.97260351    -0.80800
O355        O  0.24479162  0.75109924  0.00134535    -1.91300
Cd356      Cd  0.25006023  0.75659578  0.03588623     1.59900
O357        O  0.28797056  0.75341077  0.95896810    -0.80700
O358        O  0.21991140  0.77021566  0.05199887    -0.79400
C359        C  0.21847467  0.79261824  0.95766695     0.83200
C360        C  0.20512867  0.70474341  0.97224770     0.82800
O361        O  0.19320798  0.76823593  0.02228831    -0.78300
C362        C  0.27394775  0.70800104  0.04510721     0.83600
O363        O  0.20647361  0.77755218  0.96973672    -0.78400
C364        C  0.29191077  0.73072016  0.95910987     0.83800
C365        C  0.28636318  0.79758114  0.02688028     0.84100
O366        O  0.28599486  0.79641577  0.00395821    -0.80800
O367        O  0.01916696  0.49364849  0.04734461    -0.78400
C368        C  0.97163030  0.55927104  0.03579825     0.82700
O369        O  0.95698727  0.46658707  0.99911058    -0.79500
O370        O  0.96371437  0.54769819  0.96487854    -0.80900
O371        O  0.04941432  0.53485199  0.97436015    -0.80700
O372        O  0.04939041  0.49555134  0.02158532    -0.79400
Zn373      Zn  0.99120809  0.50870902  0.02974043     1.55700
O374        O  0.02004231  0.56115641  0.96842739    -0.80800
Cd375      Cd  0.03199898  0.50759583  0.99181882     1.59700
Cd376      Cd  0.97676689  0.48938280  0.97585830     1.59600
O377        O  0.03598829  0.48019941  0.96872633    -0.80800
O378        O  0.99715999  0.51234875  0.99621359    -1.91300
Cd379      Cd  0.99198025  0.54637491  0.98761985     1.59900
O380        O  0.00011227  0.46751214  0.95505385    -0.80700
O381        O  0.98010585  0.56661945  0.01598930    -0.79400
C382        C  0.95534368  0.46801882  0.02195091     0.83200
C383        C  0.04049159  0.48801552  0.04106400     0.82800
O384        O  0.97594455  0.53821123  0.04361612    -0.78300
C385        C  0.04133952  0.55375684  0.96451141     0.83600
O386        O  0.96667949  0.48380027  0.03403381    -0.78400
C387        C  0.02321321  0.46658824  0.95547973     0.83800
C388        C  0.95033893  0.53319567  0.95319289     0.84100
O389        O  0.95280774  0.51024654  0.95430903    -0.80800
O390        O  0.29976177  0.02062626  0.77964339    -0.78400
C391        C  0.29340693  0.96002013  0.72574062     0.82700
O392        O  0.24842114  0.04630978  0.71633289    -0.79500
O393        O  0.22186895  0.96443634  0.72018078    -0.80900
O394        O  0.22517245  0.97583396  0.80426765    -0.80700
O395        O  0.27278528  0.01738278  0.80875590    -0.79400
Zn396      Zn  0.28293841  0.00772307  0.75036712     1.55700
O397        O  0.22642612  0.94872030  0.77491039    -0.80800
Cd398      Cd  0.24325030  0.00487992  0.79009972     1.59700
Cd399      Cd  0.22748902  0.02208285  0.73593654     1.59600
O400        O  0.21930183  0.03177299  0.79428415    -0.80800
O401        O  0.24961606  0.00098132  0.75567873    -1.91300
Cd402      Cd  0.24470473  0.96662090  0.74828605     1.59900
O403        O  0.20467335  0.04176740  0.75842823    -0.80700
O404        O  0.27483450  0.95008186  0.73474008    -0.79400
C405        C  0.27134071  0.04851212  0.71666977     0.83200
C406        C  0.29300097  0.02499395  0.80097814     0.82800
O407        O  0.29921172  0.98158625  0.73131413    -0.78300
C408        C  0.21870011  0.95565939  0.79523607     0.83600
O409        O  0.28477926  0.03498864  0.72894335    -0.78400
C410        C  0.20507138  0.04381891  0.78123311     0.83800
C411        C  0.20842544  0.97825366  0.70815170     0.84100
O412        O  0.20728341  0.00090885  0.71196922    -0.80800
O413        O  0.68437868  0.73082434  0.48481805    -0.78400
C414        C  0.69674778  0.78241014  0.54177942     0.82700
O415        O  0.73800044  0.79161215  0.45345753    -0.79500
O416        O  0.76875355  0.78428139  0.53600297    -0.80900
O417        O  0.75903335  0.70046532  0.52224343    -0.80700
O418        O  0.70999854  0.70036019  0.48313191    -0.79400
Zn419      Zn  0.70462982  0.75912180  0.49354108     1.55700
O420        O  0.76102739  0.72920734  0.54998385    -0.80800
Cd421      Cd  0.74147712  0.71669505  0.49419490     1.59700
Cd422      Cd  0.75998559  0.77101078  0.47736105     1.59600
O423        O  0.76464709  0.71107359  0.46698078    -0.80800
O424        O  0.73780381  0.75168075  0.49894731    -1.91300
Cd425      Cd  0.74408034  0.75761541  0.53343732     1.59900
O426        O  0.78178576  0.74628430  0.45757725    -0.80700
O427        O  0.71512731  0.77251919  0.55115912    -0.79400
C428        C  0.71490006  0.79200557  0.45169268     0.83200
C429        C  0.68922744  0.70916593  0.47928146     0.82800
O430        O  0.69099593  0.77822505  0.52010463    -0.78300
C431        C  0.76683087  0.70839347  0.54226006     0.83600
O432        O  0.70157948  0.78014933  0.46575613    -0.78400
C433        C  0.77990977  0.72330927  0.45526901     0.83800
C434        C  0.78171421  0.79697028  0.52228484     0.84100
O435        O  0.78144076  0.79437258  0.49941302    -0.80800
O436        O  0.01543800  0.78254988  0.29743736    -0.78400
C437        C  0.94802545  0.73478762  0.29369181     0.82700
O438        O  0.03063119  0.71119236  0.25302649    -0.79500
O439        O  0.95252289  0.73032585  0.21787170    -0.80900
O440        O  0.97052042  0.80850533  0.22321437    -0.80700
O441        O  0.01141571  0.81147120  0.27032694    -0.79400
Zn442      Zn  0.99759913  0.75424591  0.28353623     1.55700
O443        O  0.93950632  0.78436274  0.23036267    -0.80800
Cd444      Cd  0.99790604  0.79225026  0.24201775     1.59700
Cd445      Cd  0.01184185  0.73513000  0.23021372     1.59600
O446        O  0.02492779  0.79271830  0.21844856    -0.80800
O447        O  0.99175593  0.75839860  0.25000863    -1.91300
Cd448      Cd  0.95697430  0.75491178  0.24414850     1.59900
O449        O  0.03620334  0.75521430  0.20912864    -0.80700
O450        O  0.94064679  0.73983985  0.27280452    -0.79400
C451        C  0.03081009  0.71128787  0.27595845     0.83200
C452        C  0.02024710  0.80359463  0.28978914     0.82800
O453        O  0.96848126  0.74222809  0.30133409    -0.78300
C454        C  0.94858235  0.80250403  0.21987609     0.83600
O455        O  0.01960548  0.72712819  0.28782622    -0.78400
C456        C  0.03802278  0.77808846  0.20698165     0.83800
C457        C  0.96541505  0.71623279  0.20547837     0.84100
O458        O  0.98836909  0.71516001  0.20776410    -0.80800
O459        O  0.55438467  0.03113027  0.98394492    -0.78400
C460        C  0.54793388  0.97974587  0.04843830     0.82700
O461        O  0.50562077  0.96576107  0.96035391    -0.79500
O462        O  0.47356915  0.97349498  0.03982233    -0.80900
O463        O  0.48121893  0.05758243  0.03022723    -0.80700
O464        O  0.52732632  0.06036532  0.98682427    -0.79400
Zn465      Zn  0.53857559  0.00211734  0.99955251     1.55700
O466        O  0.47946311  0.02722956  0.05585349    -0.80800
Cd467      Cd  0.49842478  0.04224544  0.00121688     1.59700
Cd468      Cd  0.48341291  0.98749498  0.98216069     1.59600
O469        O  0.47252548  0.04641832  0.97612215    -0.80800
O470        O  0.50471128  0.00741887  0.00472900    -1.91300
Cd471      Cd  0.49815218  0.00028210  0.03865150     1.59900
O472        O  0.46162395  0.01054877  0.96122011    -0.80700
O473        O  0.52737348  0.98608040  0.05622169    -0.79400
C474        C  0.52860884  0.96386446  0.96121536     0.83200
C475        C  0.54734552  0.05242995  0.97908129     0.82800
O476        O  0.55541519  0.98663872  0.02797715    -0.78300
C477        C  0.47288983  0.04808706  0.04918763     0.83600
O478        O  0.54142886  0.97662454  0.97529286    -0.78400
C479        C  0.45968651  0.03349483  0.96223702     0.83800
C480        C  0.45987188  0.96214299  0.02540851     0.84100
O481        O  0.46059288  0.96512424  0.00270742    -0.80800
C482        C  0.29268149  0.77908932  0.29469176     0.80400
N483        N  0.30213008  0.78949606  0.27475710    -0.77900
C484        C  0.29195360  0.80934011  0.26472635     0.82800
N485        N  0.27189378  0.81876694  0.27505401    -0.77900
C486        C  0.26184174  0.80846920  0.29473845     0.82900
N487        N  0.27247575  0.78879417  0.30457610    -0.79600
N488        N  0.37036009  0.68933926  0.36943462    -0.36500
N489        N  0.34078655  0.65247043  0.34574215    -0.57000
N490        N  0.36982218  0.61574435  0.36895384    -0.36500
N491        N  0.39710960  0.65265375  0.39520165    -0.57000
C492        C  0.35178183  0.70259727  0.36095780     0.27100
C493        C  0.38168744  0.70273485  0.38651819     0.27100
C494        C  0.35154158  0.60229995  0.35977147     0.27100
C495        C  0.38052390  0.60239493  0.38609438     0.27100
C496        C  0.33284010  0.67204350  0.33384172     0.35700
C497        C  0.33299489  0.63293437  0.33327098     0.35700
C498        C  0.41051260  0.67212893  0.40161850     0.35700
C499        C  0.40969273  0.63297671  0.40187340     0.35700
C500        C  0.35130771  0.72462252  0.37279209    -0.21700
C501        C  0.37010275  0.72468351  0.38895642    -0.21700
C502        C  0.35067793  0.58016705  0.37110863    -0.21700
C503        C  0.36894474  0.58023350  0.38774112    -0.21700
C504        C  0.31961576  0.66492082  0.31385129    -0.22800
C505        C  0.31970370  0.64010161  0.31349543    -0.22800
C506        C  0.43165770  0.66476322  0.41266453    -0.22800
C507        C  0.43107961  0.63994842  0.41291566    -0.22800
C508        C  0.33629303  0.69614526  0.34166076    -0.18200
C509        C  0.40310958  0.69637951  0.39887995    -0.18200
C510        C  0.40146603  0.60890118  0.39918332    -0.18100
C511        C  0.33654277  0.60879498  0.34042091    -0.18100
H512        H  0.33882712  0.73924921  0.36990188     0.14800
H513        H  0.37492628  0.73938659  0.40090981     0.14800
H514        H  0.33831809  0.56537793  0.36758951     0.14800
H515        H  0.37336444  0.56548158  0.39952551     0.14800
H516        H  0.31063534  0.67639072  0.30103901     0.13000
H517        H  0.31083182  0.62865048  0.30034057     0.13000
H518        H  0.44589113  0.67605926  0.42000636     0.13000
H519        H  0.44475540  0.62837222  0.42045896     0.13000
H520        H  0.37605196  0.67285611  0.36272069     0.26300
H521        H  0.37566401  0.63235771  0.36275656     0.26300
C522        C  0.48713373  0.96801080  0.28594297     0.80400
N523        N  0.47777844  0.95834013  0.26547719    -0.77900
C524        C  0.45713978  0.96695678  0.25560206     0.82800
N525        N  0.44535016  0.98511430  0.26689202    -0.77900
C526        C  0.45414241  0.99510579  0.28745685     0.82900
N527        N  0.47510476  0.98641876  0.29682045    -0.79600
N528        N  0.57008324  0.88898818  0.36916083    -0.36500
N529        N  0.60796860  0.91027259  0.33998820    -0.57000
N530        N  0.64401216  0.88286923  0.36722672    -0.36500
N531        N  0.60609821  0.85901575  0.39370847    -0.57000
C532        C  0.55663106  0.90022080  0.35227229     0.27100
C533        C  0.55557158  0.87291178  0.38034791     0.27100
C534        C  0.65768863  0.89181587  0.34938934     0.27100
C535        C  0.65668648  0.86485953  0.37744765     0.27100
C536        C  0.58930494  0.92395130  0.33248805     0.35700
C537        C  0.62834298  0.92085016  0.33177870     0.35700
C538        C  0.58635961  0.85320953  0.40664459     0.35700
C539        C  0.62541514  0.85039932  0.40579798     0.35700
C540        C  0.53318572  0.89136257  0.35298363    -0.21700
C541        C  0.53250772  0.87421580  0.37067363    -0.21700
C542        C  0.67938355  0.87949910  0.34838494    -0.21700
C543        C  0.67867350  0.86238949  0.36598714    -0.21700
C544        C  0.59786174  0.94306635  0.31902435    -0.22800
C545        C  0.62258465  0.94109093  0.31856319    -0.22800
C546        C  0.59315761  0.84063428  0.42694801    -0.22800
C547        C  0.61789110  0.83889905  0.42643056    -0.22800
C548        C  0.56460125  0.91888706  0.33682407    -0.18200
C549        C  0.56219350  0.85776666  0.39970940    -0.18200
C550        C  0.64958440  0.85147782  0.39768255    -0.18100
C551        C  0.65200793  0.91197223  0.33523127    -0.18100
H552        H  0.51806488  0.89676575  0.34196027     0.14800
H553        H  0.51674921  0.86391587  0.37585209     0.14800
H554        H  0.69434489  0.88261687  0.33638912     0.14800
H555        H  0.69292704  0.84982807  0.37013475     0.14800
H556        H  0.58740389  0.95697830  0.31041159     0.13000
H557        H  0.63489889  0.95310575  0.30944145     0.13000
H558        H  0.58149255  0.83332784  0.44063710     0.13000
H559        H  0.62903375  0.82998714  0.43960688     0.13000
H560        H  0.58784291  0.89288690  0.37365076     0.26300
H561        H  0.62775020  0.88984592  0.37307978     0.26300
N562        N  0.37431496  0.88334739  0.17583464    -0.36500
N563        N  0.40082140  0.90762640  0.13759862    -0.57000
N564        N  0.37377786  0.87976786  0.10228358    -0.36500
N565        N  0.34482826  0.85797387  0.14040111    -0.57000
C566        C  0.38588260  0.90088523  0.18841422     0.27100
C567        C  0.35646818  0.87459336  0.18987273     0.27100
C568        C  0.38467325  0.89607543  0.08798739     0.27100
C569        C  0.35554836  0.86978238  0.08944792     0.27100
C570        C  0.41404118  0.91521318  0.15662241     0.35700
C571        C  0.41344171  0.91355880  0.11778489     0.35700
C572        C  0.33735683  0.84644626  0.16035947     0.35700
C573        C  0.33722413  0.84456584  0.12146824     0.35700
C574        C  0.37533174  0.90321936  0.21080877    -0.21700
C575        C  0.35678474  0.88663476  0.21172745    -0.21700
C576        C  0.37343826  0.89619839  0.06573820    -0.21700
C577        C  0.35500213  0.87967818  0.06668726    -0.21700
C578        C  0.43510945  0.92622233  0.14884347    -0.22800
C579        C  0.43467062  0.92526382  0.12421287    -0.22800
C580        C  0.32464250  0.82576556  0.15406586    -0.22800
C581        C  0.32460223  0.82454951  0.12941476    -0.22800
C582        C  0.40658161  0.91383293  0.18080120    -0.18200
C583        C  0.34102110  0.85492796  0.18410922    -0.18200
C584        C  0.34024196  0.85099446  0.09713351    -0.18100
C585        C  0.40516735  0.91005952  0.09400593    -0.18100
H586        H  0.38064963  0.91539686  0.22513649     0.14800
H587        H  0.34507286  0.88356209  0.22688891     0.14800
H588        H  0.37807729  0.90698813  0.05033045     0.14800
H589        H  0.34270279  0.87532248  0.05215240     0.14800
H590        H  0.44916730  0.93439253  0.15975963     0.13000
H591        H  0.44827922  0.93254893  0.11239375     0.13000
H592        H  0.31623640  0.81293692  0.16598030     0.13000
H593        H  0.31607374  0.81066388  0.11856088     0.13000
H594        H  0.37936735  0.87664648  0.15923846     0.26300
H595        H  0.37927514  0.87469357  0.11928522     0.26300
C596        C  0.25842274  0.96861559  0.45043116     0.80400
N597        N  0.26873338  0.95924817  0.47047282    -0.77900
C598        C  0.28873651  0.96956405  0.48042259     0.82800
N599        N  0.29847411  0.98926276  0.46976826    -0.77900
C600        C  0.28844417  0.99907530  0.44990854     0.82900
N601        N  0.26834518  0.98855704  0.44026265    -0.79600
C602        C  0.44963873  0.80980158  0.47365607     0.80400
N603        N  0.44037172  0.78907997  0.46401349    -0.77900
C604        C  0.45135009  0.77789642  0.44521201     0.82800
N605        N  0.47149021  0.78800708  0.43564039    -0.77900
C606        C  0.48120517  0.80857697  0.44495530     0.82900
N607        N  0.47005227  0.81927718  0.46388188    -0.79600
N608        N  0.37559471  0.89444200  0.56178079    -0.36500
N609        N  0.40031607  0.86442764  0.59664366    -0.57000
N610        N  0.37462941  0.88921273  0.63513775    -0.36500
N611        N  0.34763762  0.91700926  0.60035314    -0.57000
C612        C  0.38608810  0.87806637  0.54707558     0.27100
C613        C  0.35806803  0.90551981  0.54902975     0.27100
C614        C  0.38456318  0.87076898  0.64728821     0.27100
C615        C  0.35738110  0.89873238  0.64932562     0.27100
C616        C  0.41281743  0.85797111  0.57690567     0.35700
C617        C  0.41222073  0.85525277  0.61566496     0.35700
C618        C  0.33990352  0.93043465  0.58177151     0.35700
C619        C  0.34004087  0.92812613  0.62057274     0.35700
C620        C  0.37541721  0.87913309  0.52459173    -0.21700
C621        C  0.35773337  0.89634284  0.52583858    -0.21700
C622        C  0.37364284  0.86867450  0.66950324    -0.21700
C623        C  0.35660078  0.88636055  0.67083918    -0.21700
C624        C  0.43267063  0.84437051  0.58340807    -0.22800
C625        C  0.43230369  0.84267190  0.60800099    -0.22800
C626        C  0.32707085  0.95008187  0.59021802    -0.22800
C627        C  0.32716334  0.94861373  0.61482789    -0.22800
C628        C  0.40549767  0.86264214  0.55306078    -0.18200
C629        C  0.34296571  0.92437461  0.55729742    -0.18200
C630        C  0.34321991  0.91908121  0.64400382    -0.18100
C631        C  0.40418962  0.85663384  0.63964053    -0.18100
H632        H  0.37986067  0.86857842  0.50886558     0.14800
H633        H  0.34600344  0.90155921  0.51123441     0.14800
H634        H  0.37771314  0.85591581  0.68350912     0.14800
H635        H  0.34515007  0.88975624  0.68612079     0.14800
H636        H  0.44584111  0.83625540  0.57164056     0.13000
H637        H  0.44509652  0.83296412  0.61895072     0.13000
H638        H  0.31836250  0.96389625  0.57973410     0.13000
H639        H  0.31849315  0.96100830  0.62706381     0.13000
H640        H  0.38080764  0.89862094  0.57916337     0.26300
H641        H  0.38032824  0.89584510  0.61880154     0.26300
N642        N  0.37202352  0.07987697  0.36729769    -0.36500
N643        N  0.34884752  0.11726010  0.39617720    -0.57000
N644        N  0.37646454  0.15400868  0.37080500    -0.36500
N645        N  0.40236423  0.11666693  0.34454198    -0.57000
C646        C  0.36019837  0.06615192  0.38351899     0.27100
C647        C  0.38877655  0.06580652  0.35659377     0.27100
C648        C  0.36632578  0.16768331  0.38810001     0.27100
C649        C  0.39406102  0.16739558  0.36069806     0.27100
C650        C  0.33525748  0.09817629  0.40291768     0.35700
C651        C  0.33779667  0.13716887  0.40478190     0.35700
C652        C  0.40907288  0.09718351  0.33154614     0.35700
C653        C  0.41071477  0.13632055  0.33287833     0.35700
C654        C  0.36933429  0.04295372  0.38285029    -0.21700
C655        C  0.38729326  0.04272609  0.36589167    -0.21700
C656        C  0.37746597  0.19011376  0.38885097    -0.21700
C657        C  0.39501267  0.18991391  0.37160054    -0.21700
C658        C  0.31566685  0.10602000  0.41617453    -0.22800
C659        C  0.31733019  0.13067713  0.41742380    -0.22800
C660        C  0.42203800  0.10450159  0.31165010    -0.22800
C661        C  0.42306862  0.12926909  0.31249296    -0.22800
C662        C  0.34087685  0.07368679  0.39840204    -0.18200
C663        C  0.40477356  0.07285275  0.33803306    -0.18200
C664        C  0.40836733  0.16046753  0.34099927    -0.18100
C665        C  0.34635465  0.16110044  0.40225122    -0.18100
H666        H  0.36361958  0.02771276  0.39345334     0.14800
H667        H  0.39804428  0.02726537  0.36098489     0.14800
H668        H  0.37324891  0.20519317  0.40044817     0.14800
H669        H  0.40693947  0.20479411  0.36739822     0.14800
H670        H  0.30165961  0.09512756  0.42422816     0.13000
H671        H  0.30490679  0.14246972  0.42663963     0.13000
H672        H  0.43006747  0.09316250  0.29803976     0.13000
H673        H  0.43206284  0.14076223  0.29968774     0.13000
H674        H  0.36809845  0.09753126  0.36295990     0.26300
H675        H  0.37070393  0.13711795  0.36519450     0.26300
N676        N  0.17344010  0.88948225  0.37200112    -0.36500
N677        N  0.13901422  0.86137055  0.34500936    -0.57000
N678        N  0.10005153  0.88570707  0.37080922    -0.36500
N679        N  0.13438905  0.91609024  0.39559642    -0.57000
C680        C  0.18748255  0.88008594  0.35450613     0.27100
C681        C  0.18495877  0.90915030  0.38085954     0.27100
C682        C  0.08811389  0.87503259  0.35251886     0.27100
C683        C  0.08558443  0.90318322  0.37944342     0.27100
C684        C  0.15914827  0.84889629  0.33963248     0.35700
C685        C  0.12013283  0.84717023  0.33881504     0.35700
C686        C  0.15345585  0.92297199  0.40920344     0.35700
C687        C  0.11435131  0.92075368  0.40853466     0.35700
C688        C  0.20810776  0.89406846  0.35205157    -0.21700
C689        C  0.20652610  0.91242892  0.36870396    -0.21700
C690        C  0.06582660  0.88589418  0.34937960    -0.21700
C691        C  0.06420807  0.90367900  0.36649136    -0.21700
C692        C  0.15302151  0.82667656  0.32979725    -0.22800
C693        C  0.12821288  0.82563211  0.32918287    -0.22800
C694        C  0.14550142  0.93203448  0.43098391    -0.22800
C695        C  0.12063375  0.93088294  0.43043547    -0.22800
C696        C  0.18281039  0.85825410  0.34203295    -0.18200
C697        C  0.17767434  0.92258534  0.40125377    -0.18200
C698        C  0.09057631  0.91737246  0.39983230    -0.18100
C699        C  0.09580850  0.85427622  0.34022561    -0.18100
H700        H  0.22295082  0.89104235  0.33988048     0.14800
H701        H  0.21996904  0.92632278  0.37189085     0.14800
H702        H  0.05193983  0.88110049  0.33647513     0.14800
H703        H  0.04891233  0.91536773  0.36932866     0.14800
H704        H  0.16511390  0.81280199  0.32349489     0.13000
H705        H  0.11736738  0.81084223  0.32228090     0.13000
H706        H  0.15645062  0.93918120  0.44550958     0.13000
H707        H  0.10857064  0.93688052  0.44442768     0.13000
H708        H  0.15780104  0.88178146  0.37896072     0.26300
H709        H  0.11635191  0.88004686  0.37817774     0.26300
O710        O  0.69710848  0.03296859  0.26929099    -0.78400
C711        C  0.70395603  0.98186781  0.20726339     0.82700
O712        O  0.74924484  0.96497657  0.28754950    -0.79500
O713        O  0.77726132  0.98249351  0.20681799    -0.80900
O714        O  0.76396439  0.06449889  0.22820088    -0.80700
O715        O  0.72687762  0.05891355  0.27574508    -0.79400
Zn716      Zn  0.71486190  0.00493356  0.25513340     1.55700
O717        O  0.76430871  0.03823894  0.19802218    -0.80800
Cd718      Cd  0.75436349  0.04408783  0.25680522     1.59700
Cd719      Cd  0.77049350  0.98800123  0.26633607     1.59600
O720        O  0.78345031  0.04576120  0.27846288    -0.80800
O721        O  0.74810952  0.01040185  0.24841748    -1.91300
Cd722      Cd  0.75171480  0.00726489  0.21345571     1.59900
O723        O  0.79525514  0.00837872  0.28714927    -0.80700
O724        O  0.72247292  0.99099214  0.19732821    -0.79400
C725        C  0.72635040  0.96555389  0.29019038     0.83200
C726        C  0.70518552  0.05219988  0.27896271     0.82800
O727        O  0.69835677  0.98747353  0.22857152    -0.78300
C728        C  0.76930102  0.05891645  0.20680640     0.83600
O729        O  0.71312818  0.98063631  0.27963954    -0.78400
C730        C  0.79749257  0.03127271  0.28894149     0.83800
C731        C  0.78966210  0.96760956  0.21869702     0.84100
O732        O  0.78953503  0.96686879  0.24157255    -0.80800
O733        O  0.80363953  0.23886961  0.97165360    -0.78400
C734        C  0.79942869  0.30554142  0.02007516     0.82700
O735        O  0.75190036  0.22571346  0.03805215    -0.79500
O736        O  0.72294947  0.30371382  0.02004652    -0.80900
O737        O  0.73140345  0.28518951  0.94145372    -0.80700
O738        O  0.78046965  0.24588423  0.94010021    -0.79400
Zn739      Zn  0.78806684  0.25707967  0.99854166     1.55700
O740        O  0.73580857  0.31600184  0.96664616    -0.80800
Cd741      Cd  0.75031259  0.25803057  0.95752991     1.59700
Cd742      Cd  0.73223425  0.24463831  0.01218159     1.59600
O743        O  0.72811911  0.22944092  0.95427128    -0.80800
O744        O  0.75516519  0.26430195  0.99187746    -1.91300
Cd745      Cd  0.75021620  0.29911815  0.99643630     1.59900
O746        O  0.71332169  0.22018308  0.99023608    -0.80700
O747        O  0.77954903  0.31459723  0.01317558    -0.79400
C748        C  0.77482321  0.22448031  0.03985318     0.83200
C749        C  0.79842004  0.23543193  0.94963875     0.82800
O750        O  0.80627345  0.28491463  0.01276947    -0.78300
C751        C  0.72668890  0.30670720  0.94765762     0.83600
O752        O  0.78882338  0.23500329  0.02541629    -0.78400
C753        C  0.71480304  0.21673534  0.96763386     0.83800
C754        C  0.70742357  0.29053981  0.03034566     0.84100
O755        O  0.70775724  0.26756565  0.02923140    -0.80800
C756        C  0.29477997  0.26983023  0.80115681     0.80400
N757        N  0.30444019  0.27980099  0.78110345    -0.77900
C758        C  0.29476189  0.29996263  0.77119494     0.82800
N759        N  0.27541503  0.31024967  0.78203475    -0.77900
C760        C  0.26565649  0.30082236  0.80225524     0.82900
N761        N  0.27546378  0.28055299  0.81162235    -0.79600
C762        C  0.48075761  0.30262771  0.95736272     0.80400
N763        N  0.47111550  0.28153926  0.94926753    -0.77900
C764        C  0.45160370  0.27143992  0.95998271     0.82800
N765        N  0.44145619  0.28294060  0.97902046    -0.77900
C766        C  0.45097481  0.30390311  0.98786406     0.82900
N767        N  0.47066059  0.31360571  0.97677772    -0.79600
C768        C  0.44426059  0.45828967  0.76375123     0.80400
N769        N  0.43374680  0.47738109  0.77498871    -0.77900
C770        C  0.44334256  0.48701082  0.79550649     0.82800
N771        N  0.46354870  0.47693884  0.80497940    -0.77900
C772        C  0.47431391  0.45791338  0.79401952     0.82900
N773        N  0.46445502  0.44863942  0.77363986    -0.79600
C774        C  0.25957193  0.46407262  0.95991247     0.80400
N775        N  0.27061454  0.45444812  0.97948314    -0.77900
C776        C  0.29031163  0.46537649  0.98950130     0.82800
N777        N  0.29880903  0.48614612  0.97985591    -0.77900
C778        C  0.28810316  0.49603180  0.96038793     0.82900
N779        N  0.26868301  0.48466102  0.95040989    -0.79600
N780        N  0.36422825  0.57638007  0.87442206    -0.36500
N781        N  0.34310517  0.61593183  0.90199201    -0.57000
N782        N  0.36593748  0.65011510  0.86969707    -0.36500
N783        N  0.38976202  0.61064312  0.84443290    -0.57000
C784        C  0.35491856  0.56443425  0.89334498     0.27100
C785        C  0.38040415  0.56163375  0.86374168     0.27100
C786        C  0.35857394  0.66504607  0.88740397     0.27100
C787        C  0.38258204  0.66230628  0.85691069     0.27100
C788        C  0.33034698  0.59742387  0.91129360     0.35700
C789        C  0.33224489  0.63639177  0.90941484     0.35700
C790        C  0.39615834  0.59009651  0.83303890     0.35700
C791        C  0.39641699  0.62907220  0.83013825     0.35700
C792        C  0.36515378  0.54174273  0.89461823    -0.21700
C793        C  0.38127702  0.54000550  0.87600901    -0.21700
C794        C  0.37045369  0.68700104  0.88570147    -0.21700
C795        C  0.38557975  0.68529779  0.86644352    -0.21700
C796        C  0.31144455  0.60619181  0.92495718    -0.22800
C797        C  0.31272664  0.63090506  0.92385555    -0.22800
C798        C  0.40721449  0.59552887  0.81148164    -0.22800
C799        C  0.40734837  0.62023606  0.80963492    -0.22800
C800        C  0.33625029  0.57279317  0.90852338    -0.18200
C801        C  0.39346101  0.56662016  0.84251455    -0.18200
C802        C  0.39452375  0.65374439  0.83629553    -0.18100
C803        C  0.34057093  0.65994072  0.90438493    -0.18100
H804        H  0.36126288  0.52779874  0.90752845     0.14800
H805        H  0.39218025  0.52444474  0.87181153     0.14800
H806        H  0.36839539  0.70268610  0.89711429     0.14800
H807        H  0.39745248  0.69945366  0.86020105     0.14800
H808        H  0.29822671  0.59589628  0.93485620     0.13000
H809        H  0.30074723  0.64340483  0.93272967     0.13000
H810        H  0.41465087  0.58301714  0.79856784     0.13000
H811        H  0.41501931  0.63054001  0.79510693     0.13000
H812        H  0.35863243  0.59302283  0.86829575     0.26300
H813        H  0.35906709  0.63313068  0.86573823     0.26300
N814        N  0.56284679  0.38052616  0.87355959    -0.36500
N815        N  0.60172480  0.35803333  0.90064415    -0.57000
N816        N  0.63667785  0.38214872  0.87003580    -0.36500
N817        N  0.59785312  0.40697412  0.84519535    -0.57000
C818        C  0.55068248  0.37169898  0.89260907     0.27100
C819        C  0.54865169  0.39726642  0.86309451     0.27100
C820        C  0.65114453  0.37351157  0.88746775     0.27100
C821        C  0.64910773  0.39982820  0.85893476     0.27100
C822        C  0.58278613  0.34534345  0.90922056     0.35700
C823        C  0.62184278  0.34591251  0.90692886     0.35700
C824        C  0.57766049  0.41205489  0.83260121     0.35700
C825        C  0.61672931  0.41336965  0.83132515     0.35700
C826        C  0.52844527  0.38290755  0.89421678    -0.21700
C827        C  0.52718683  0.39907260  0.87564111    -0.21700
C828        C  0.67308720  0.38566219  0.88730526    -0.21700
C829        C  0.67174555  0.40239421  0.86937141    -0.21700
C830        C  0.59092789  0.32519379  0.92129073    -0.22800
C831        C  0.61572269  0.32558506  0.91987161    -0.22800
C832        C  0.58376138  0.42181928  0.81060896    -0.22800
C833        C  0.60854985  0.42279402  0.80987718    -0.22800
C834        C  0.55840898  0.35264336  0.90755638    -0.18200
C835        C  0.55391088  0.40966873  0.84156221    -0.18200
C836        C  0.64112905  0.41270173  0.83873957    -0.18100
C837        C  0.64563830  0.35396654  0.90251582    -0.18100
H838        H  0.51446679  0.37959808  0.90729492     0.14800
H839        H  0.51203731  0.41059776  0.87162707     0.14800
H840        H  0.68852894  0.38271536  0.89883444     0.14800
H841        H  0.68595747  0.41482825  0.86440037     0.14800
H842        H  0.58015558  0.31180001  0.93041927     0.13000
H843        H  0.62786341  0.31259449  0.92770520     0.13000
H844        H  0.57164643  0.42792827  0.79668685     0.13000
H845        H  0.61932275  0.42984972  0.79536281     0.13000
H846        H  0.57917702  0.37425026  0.86706748     0.26300
H847        H  0.61991890  0.37529922  0.86503689     0.26300
N848        N  0.37148056  0.37396134  0.67849989    -0.36500
N849        N  0.34355500  0.34570269  0.64403520    -0.57000
N850        N  0.36715010  0.37164340  0.60519564    -0.36500
N851        N  0.39266359  0.40224212  0.63965629    -0.57000
C852        C  0.35561352  0.36291355  0.69328065     0.27100
C853        C  0.38176158  0.39235485  0.69097605     0.27100
C854        C  0.34922654  0.36009249  0.59321054     0.27100
C855        C  0.37503570  0.38960736  0.59093502     0.27100
C856        C  0.33758500  0.33360881  0.66412086     0.35700
C857        C  0.33565586  0.33222779  0.62530767     0.35700
C858        C  0.40617320  0.41063749  0.65818436     0.35700
C859        C  0.40383185  0.40926052  0.61932761     0.35700
C860        C  0.35610930  0.37424060  0.71550456    -0.21700
C861        C  0.37256093  0.39277066  0.71405433    -0.21700
C862        C  0.34573519  0.37078363  0.57107358    -0.21700
C863        C  0.36203227  0.38940990  0.56963777    -0.21700
C864        C  0.32553606  0.31244669  0.65814889    -0.22800
C865        C  0.32439968  0.31151615  0.63352483    -0.22800
C866        C  0.42586909  0.42337905  0.64960987    -0.22800
C867        C  0.42448537  0.42235334  0.62496619    -0.22800
C868        C  0.34146667  0.34223973  0.68773444    -0.18200
C869        C  0.40025013  0.40792587  0.68267841    -0.18200
C870        C  0.39473329  0.40514154  0.59587464    -0.18100
C871        C  0.33687100  0.33929748  0.60103582    -0.18100
H872        H  0.34582614  0.36956310  0.73126107     0.14800
H873        H  0.37733568  0.40504049  0.72848415     0.14800
H874        H  0.33294592  0.36553874  0.55725189     0.14800
H875        H  0.36421533  0.40132337  0.55451497     0.14800
H876        H  0.31814689  0.29919720  0.67026606     0.13000
H877        H  0.31590791  0.29742342  0.62290647     0.13000
H878        H  0.43973720  0.43248400  0.66002523     0.13000
H879        H  0.43700975  0.43061415  0.61261805     0.13000
H880        H  0.37605613  0.36849254  0.66133636     0.26300
H881        H  0.37467271  0.36651920  0.62142292     0.26300
N882        N  0.37423333  0.38909749  0.07299658    -0.36500
N883        N  0.34610442  0.41239686  0.11076602    -0.57000
N884        N  0.37340132  0.38631362  0.14694939    -0.36500
N885        N  0.39918114  0.36074010  0.10889604    -0.57000
C886        C  0.35594646  0.39869769  0.06010381     0.27100
C887        C  0.38487000  0.37220122  0.05902755     0.27100
C888        C  0.35566770  0.39591729  0.16050807     0.27100
C889        C  0.38301798  0.36791893  0.15949062     0.27100
C890        C  0.33874339  0.42540699  0.09171820     0.35700
C891        C  0.33902299  0.42452916  0.13058658     0.35700
C892        C  0.41226714  0.35438143  0.08946545     0.35700
C893        C  0.41109148  0.35227969  0.12826019     0.35700
C894        C  0.35512791  0.38787595  0.03761650    -0.21700
C895        C  0.37344437  0.37129462  0.03689564    -0.21700
C896        C  0.35425023  0.38373638  0.18207330    -0.21700
C897        C  0.37148473  0.36603797  0.18141512    -0.21700
C898        C  0.32684458  0.44590376  0.09946758    -0.22800
C899        C  0.32694693  0.44530254  0.12411134    -0.22800
C900        C  0.43249894  0.34165999  0.09649367    -0.22800
C901        C  0.43177172  0.34033913  0.12106796    -0.22800
C902        C  0.34080594  0.41786633  0.06752195    -0.18200
C903        C  0.40508060  0.35808679  0.06541363    -0.18200
C904        C  0.40252372  0.35337192  0.15212780    -0.18100
C905        C  0.34124965  0.41585771  0.15428782    -0.18100
H906        H  0.34267390  0.39160099  0.02313306     0.14800
H907        H  0.37778288  0.35980689  0.02179539     0.14800
H908        H  0.34203340  0.38719621  0.19676042     0.14800
H909        H  0.37511217  0.35324505  0.19551087     0.14800
H910        H  0.31851357  0.45957742  0.08851223     0.13000
H911        H  0.31870020  0.45840569  0.13590749     0.13000
H912        H  0.44611241  0.33377477  0.08507681     0.13000
H913        H  0.44473009  0.33121703  0.13232819     0.13000
H914        H  0.37996202  0.39466368  0.08988911     0.26300
H915        H  0.37934840  0.39268429  0.13055462     0.26300
N916        N  0.37225641  0.18359224  0.88136281    -0.36500
N917        N  0.34502378  0.14666126  0.85590518    -0.57000
N918        N  0.37126970  0.11004639  0.88283356    -0.36500
N919        N  0.39603731  0.14705066  0.91066875    -0.57000
C920        C  0.35484238  0.19680468  0.87065092     0.27100
C921        C  0.38135833  0.19699575  0.89966638     0.27100
C922        C  0.35383542  0.09647631  0.87238299     0.27100
C923        C  0.38117380  0.09661153  0.90037508     0.27100
C924        C  0.33857965  0.16583027  0.84255334     0.35700
C925        C  0.33776694  0.12678153  0.84370786     0.35700
C926        C  0.40873789  0.16671072  0.91782829     0.35700
C927        C  0.40855993  0.12759937  0.91808679     0.35700
C928        C  0.35282697  0.21881400  0.88233272    -0.21700
C929        C  0.36951208  0.21891376  0.90067127    -0.21700
C930        C  0.35266228  0.07416285  0.88341789    -0.21700
C931        C  0.36997156  0.07424129  0.90106084    -0.21700
C932        C  0.32688430  0.15809280  0.82185529    -0.22800
C933        C  0.32626407  0.13331826  0.82264989    -0.22800
C934        C  0.42924559  0.15969877  0.93022983    -0.22800
C935        C  0.42908134  0.13491191  0.93045436    -0.22800
C936        C  0.34181289  0.19015371  0.84969572    -0.18200
C937        C  0.40143578  0.19083668  0.91414731    -0.18200
C938        C  0.40109921  0.10337748  0.91471631    -0.18100
C939        C  0.34016892  0.10291742  0.85205239    -0.18100
H940        H  0.34080568  0.23342397  0.87787898     0.14800
H941        H  0.37292005  0.23365405  0.91304105     0.14800
H942        H  0.34082190  0.05919501  0.87898356     0.14800
H943        H  0.37401911  0.05941286  0.91288352     0.14800
H944        H  0.31932698  0.16911953  0.80781082     0.13000
H945        H  0.31813377  0.12148411  0.80935910     0.13000
H946        H  0.44289172  0.17119576  0.93832623     0.13000
H947        H  0.44247772  0.12357456  0.93881318     0.13000
H948        H  0.37886769  0.16716120  0.87539321     0.26300
H949        H  0.37721123  0.12681307  0.87719522     0.26300
N950        N  0.17704839  0.37978142  0.87891688    -0.36500
N951        N  0.13950096  0.40544250  0.90554348    -0.57000
N952        N  0.10312888  0.38109179  0.87697930    -0.36500
N953        N  0.14070164  0.35775880  0.84810015    -0.57000
C954        C  0.19034955  0.39684115  0.89046748     0.27100
C955        C  0.19092237  0.37052788  0.86120054     0.27100
C956        C  0.08950861  0.39770711  0.88832015     0.27100
C957        C  0.09023224  0.37326076  0.85787596     0.27100
C958        C  0.15895459  0.41217516  0.91867901     0.35700
C959        C  0.11978448  0.41197676  0.91817075     0.35700
C960        C  0.16000102  0.34479167  0.84095436     0.35700
C961        C  0.12089578  0.34639019  0.83929594     0.35700
C962        C  0.21298034  0.39832857  0.88001056    -0.21700
C963        C  0.21335723  0.38170826  0.86162618    -0.21700
C964        C  0.06764993  0.40023294  0.87642744    -0.21700
C965        C  0.06809876  0.38480147  0.85722871    -0.21700
C966        C  0.15154934  0.42319449  0.93976550    -0.22800
C967        C  0.12670419  0.42308137  0.93942369    -0.22800
C968        C  0.15240561  0.32521561  0.82726374    -0.22800
C969        C  0.12760701  0.32632411  0.82608721    -0.22800
C970        C  0.18320997  0.41015816  0.91103792    -0.18200
C971        C  0.18437077  0.35139957  0.84543812    -0.18200
C972        C  0.09696704  0.35460345  0.84210455    -0.18100
C973        C  0.09579519  0.41009804  0.90958015    -0.18100
H974        H  0.22781472  0.41002982  0.88522395     0.14800
H975        H  0.22847145  0.37821849  0.84991234     0.14800
H976        H  0.05279561  0.41188655  0.88112799     0.14800
H977        H  0.05358510  0.38220543  0.84441979     0.14800
H978        H  0.16286266  0.43087751  0.95374214     0.13000
H979        H  0.11507348  0.43074325  0.95297396     0.13000
H980        H  0.16355864  0.31174311  0.81875030     0.13000
H981        H  0.11586577  0.31384526  0.81657376     0.13000
H982        H  0.16002485  0.37374441  0.88379093     0.26300
H983        H  0.11958761  0.37436903  0.88269371     0.26300
C984        C  0.69966110  0.73190347  0.20751529     0.80400
N985        N  0.72042466  0.72246414  0.19889086    -0.77900
C986        C  0.73105870  0.70337244  0.20964077     0.82800
N987        N  0.72041117  0.69333447  0.22917332    -0.77900
C988        C  0.69965002  0.70266497  0.23826232     0.82900
N989        N  0.68966246  0.72203968  0.22735688    -0.79600
N990        N  0.62171477  0.62390431  0.32411027    -0.36500
N991        N  0.64197183  0.65411849  0.36088063    -0.57000
N992        N  0.61709299  0.62464843  0.39687218    -0.36500
N993        N  0.59709957  0.59419095  0.35944043    -0.57000
C994        C  0.63957147  0.63465608  0.31143055     0.27100
C995        C  0.61219920  0.60631210  0.31006360     0.27100
C996        C  0.61853425  0.64677220  0.40686323     0.27100
C997        C  0.59824658  0.61348954  0.40737601     0.27100
C998        C  0.65513754  0.66311400  0.34273805     0.35700
C999        C  0.64858316  0.66621889  0.38084762     0.35700
C1000       C  0.58500004  0.58679114  0.33960928     0.35700
C1001       C  0.58566579  0.58430026  0.37839636     0.35700
C1002       C  0.64134676  0.62361166  0.28913369    -0.21700
C1003       C  0.62410574  0.60574885  0.28828000    -0.21700
C1004       C  0.60016485  0.64997668  0.42328650    -0.21700
C1005       C  0.58664574  0.62915474  0.42282290    -0.21700
C1006       C  0.67019953  0.68133752  0.35121956    -0.22800
C1007       C  0.66634527  0.68300979  0.37555990    -0.22800
C1008       C  0.56541575  0.57263397  0.34600355    -0.22800
C1009       C  0.56579793  0.57108620  0.37052570    -0.22800
C1010       C  0.65384092  0.65471297  0.31880602    -0.18200
C1011       C  0.59207476  0.59170144  0.31579116    -0.18200
C1012       C  0.59135363  0.58959450  0.40269548    -0.18100
C1013       C  0.63739392  0.66316783  0.40322534    -0.18100
H1014       H  0.65374530  0.62802777  0.27486671     0.14800
H1015       H  0.62057485  0.59381662  0.27323778     0.14800
H1016       H  0.59675224  0.66579632  0.43415458     0.14800
H1017       H  0.57029623  0.62579713  0.43281724     0.14800
H1018       H  0.68279531  0.69210261  0.34102389     0.13000
H1019       H  0.67505164  0.69559139  0.38776562     0.13000
H1020       H  0.55200603  0.56450774  0.33429376     0.13000
H1021       H  0.55210527  0.56241889  0.38126884     0.13000
H1022       H  0.61511625  0.62896693  0.34075411     0.26300
H1023       H  0.62928297  0.61692432  0.38489936     0.26300
C1024       C  0.69291364  0.52757163  0.03877975     0.80400
N1025       N  0.68445676  0.53866476  0.01878948    -0.77900
C1026       C  0.69565443  0.55853829  0.00977452     0.82800
N1027       N  0.71540261  0.56740710  0.02140039    -0.77900
C1028       C  0.72427501  0.55682461  0.04146801     0.82900
N1029       N  0.71284405  0.53688937  0.04993081    -0.79600
C1030       C  0.51486741  0.71055543  0.04463465     0.80400
N1031       N  0.52454935  0.70062400  0.02453661    -0.77900
C1032       C  0.54435201  0.71059984  0.01410515     0.82800
N1033       N  0.55461943  0.73047926  0.02430898    -0.77900
C1034       C  0.54535034  0.74044020  0.04451713     0.82900
N1035       N  0.52563762  0.73022538  0.05459720    -0.79600
C1036       C  0.54593940  0.51723165  0.20292636     0.80400
N1037       N  0.55501402  0.52643643  0.22370735    -0.77900
C1038       C  0.54474468  0.54589443  0.23435520     0.82800
N1039       N  0.52530477  0.55634850  0.22378793    -0.77900
C1040       C  0.51578967  0.54714113  0.20315055     0.82900
N1041       N  0.52633245  0.52770814  0.19282666    -0.79600
N1042       N  0.43163790  0.63055651  0.12617598    -0.36500
N1043       N  0.39486752  0.60031451  0.14834498    -0.57000
N1044       N  0.35806395  0.62974636  0.12591188    -0.36500
N1045       N  0.39460477  0.65776433  0.10147061    -0.57000
C1046       C  0.44498612  0.61212744  0.13462305     0.27100
C1047       C  0.44481265  0.64164902  0.10907575     0.27100
C1048       C  0.34488783  0.61086358  0.13370485     0.27100
C1049       C  0.34465759  0.64092670  0.10913628     0.27100
C1050       C  0.41435846  0.59317157  0.16097619     0.35700
C1051       C  0.37529283  0.59247245  0.16044431     0.35700
C1052       C  0.41407845  0.67096356  0.09523441     0.35700
C1053       C  0.37501876  0.67084862  0.09563191     0.35700
C1054       C  0.46694298  0.61150333  0.12282271    -0.21700
C1055       C  0.46682570  0.63012610  0.10666631    -0.21700
C1056       C  0.32287000  0.61003492  0.12183584    -0.21700
C1057       C  0.32270038  0.62906274  0.10631791    -0.21700
C1058       C  0.40712670  0.58039647  0.18100681    -0.22800
C1059       C  0.38231290  0.57991236  0.18062643    -0.22800
C1060       C  0.40684570  0.69256233  0.08522083    -0.22800
C1061       C  0.38201030  0.69246543  0.08544487    -0.22800
C1062       C  0.43853458  0.59704312  0.15392367    -0.18200
C1063       C  0.43811290  0.66276983  0.09668252    -0.18200
C1064       C  0.35105189  0.66240932  0.09741942    -0.18100
C1065       C  0.35124421  0.59579380  0.15284940    -0.18100
H1066       H  0.48165210  0.59913098  0.12581994     0.14800
H1067       H  0.48144992  0.63488625  0.09477333     0.14800
H1068       H  0.30824710  0.59732421  0.12446799     0.14800
H1069       H  0.30790178  0.63381982  0.09458461     0.14800
H1070       H  0.41851314  0.57223704  0.19446191     0.13000
H1071       H  0.37077577  0.57133076  0.19367830     0.13000
H1072       H  0.41825030  0.70668543  0.07811983     0.13000
H1073       H  0.37042970  0.70644368  0.07851435     0.13000
H1074       H  0.41519000  0.63622489  0.13293793     0.26300
H1075       H  0.37443329  0.63570462  0.13294482     0.26300
N1076       N  0.61720373  0.43508521  0.11523804    -0.36500
N1077       N  0.63921439  0.40077029  0.08250016    -0.57000
N1078       N  0.61514463  0.36187896  0.10840418    -0.36500
N1079       N  0.59044523  0.39615387  0.13872958    -0.57000
C1080       C  0.62635634  0.45010566  0.09849211     0.27100
C1081       C  0.60078125  0.44765716  0.12800850     0.27100
C1082       C  0.62436455  0.34976069  0.08959013     0.27100
C1083       C  0.59839717  0.34742560  0.11846896     0.27100
C1084       C  0.65174876  0.42072913  0.07625583     0.35700
C1085       C  0.65136218  0.38173559  0.07349244     0.35700
C1086       C  0.58526489  0.41448775  0.15381795     0.35700
C1087       C  0.58423198  0.37560907  0.15008036     0.35700
C1088       C  0.61576997  0.47255123  0.10079121    -0.21700
C1089       C  0.59960641  0.47100090  0.11935354    -0.21700
C1090       C  0.61335667  0.32733757  0.08756951    -0.21700
C1091       C  0.59686955  0.32588138  0.10580130    -0.21700
C1092       C  0.67162516  0.41439224  0.06267775    -0.22800
C1093       C  0.67143546  0.38965604  0.06100289    -0.22800
C1094       C  0.57542826  0.40557443  0.17480614    -0.22800
C1095       C  0.57468221  0.38089407  0.17238516    -0.22800
C1096       C  0.64509771  0.44459561  0.08219240    -0.18200
C1097       C  0.58791265  0.43916076  0.14820023    -0.18200
C1098       C  0.58614779  0.35227592  0.14002574    -0.18100
C1099       C  0.64420384  0.35736146  0.07587201    -0.18100
H1100       H  0.61945032  0.48846988  0.09029585     0.14800
H1101       H  0.58841886  0.48552086  0.12588642     0.14800
H1102       H  0.61725943  0.31326840  0.07466539     0.14800
H1103       H  0.58555589  0.31044736  0.10969560     0.14800
H1104       H  0.68495888  0.42632124  0.05494869     0.13000
H1105       H  0.68454499  0.37876562  0.05163432     0.13000
H1106       H  0.56917976  0.41580951  0.19011555     0.13000
H1107       H  0.56785013  0.36830343  0.18547487     0.13000
H1108       H  0.62296226  0.41774651  0.11881866     0.26300
H1109       H  0.62152449  0.37813718  0.11518993     0.26300
N1110       N  0.62153847  0.63914021  0.92274137    -0.36500
N1111       N  0.64619401  0.61197767  0.88553080    -0.57000
N1112       N  0.61899612  0.63838246  0.84970001    -0.36500
N1113       N  0.59680994  0.66791497  0.88688210    -0.57000
C1114       C  0.63895945  0.62825556  0.93574537     0.27100
C1115       C  0.61244594  0.65706587  0.93644312     0.27100
C1116       C  0.63492740  0.62671606  0.83562690     0.27100
C1117       C  0.60932112  0.65610496  0.83636343     0.27100
C1118       C  0.65384299  0.59948628  0.90476230     0.35700
C1119       C  0.65219741  0.59891479  0.86598409     0.35700
C1120       C  0.58485920  0.67553422  0.90653376     0.35700
C1121       C  0.58412023  0.67562431  0.86772653     0.35700
C1122       C  0.64088756  0.63939249  0.95801115    -0.21700
C1123       C  0.62417147  0.65758034  0.95843381    -0.21700
C1124       C  0.63514209  0.63696566  0.81301648    -0.21700
C1125       C  0.61899617  0.65552746  0.81349450    -0.21700
C1126       C  0.66516292  0.57852336  0.89740198    -0.22800
C1127       C  0.66411244  0.57816111  0.87276801    -0.22800
C1128       C  0.56470143  0.68858012  0.89985242    -0.22800
C1129       C  0.56429068  0.68871992  0.87520103    -0.22800
C1130       C  0.65189512  0.60747679  0.92874979    -0.18200
C1131       C  0.59261918  0.67175885  0.93036308    -0.18200
C1132       C  0.59072333  0.67167128  0.84361846    -0.18100
C1133       C  0.64834140  0.60626111  0.84211546    -0.18100
H1134       H  0.65283714  0.63470705  0.97261798     0.14800
H1135       H  0.62079139  0.66962070  0.97336423     0.14800
H1136       H  0.64563882  0.63150946  0.79762426     0.14800
H1137       H  0.61463926  0.66707045  0.79855414     0.14800
H1138       H  0.67349759  0.56504174  0.90859100     0.13000
H1139       H  0.67146276  0.56435443  0.86117734     0.13000
H1140       H  0.55177929  0.69724455  0.91150244     0.13000
H1141       H  0.55093411  0.69741134  0.86405976     0.13000
H1142       H  0.61493278  0.63351036  0.90625201     0.26300
H1143       H  0.61388177  0.63356423  0.86681299     0.26300
N1144       N  0.81440316  0.62987765  0.12347001    -0.36500
N1145       N  0.85206673  0.65506317  0.15028979    -0.57000
N1146       N  0.88795849  0.63187358  0.12073962    -0.36500
N1147       N  0.85032136  0.60892540  0.09181547    -0.57000
C1148       C  0.80134303  0.64605724  0.13611415     0.27100
C1149       C  0.80033933  0.62185143  0.10515686     0.27100
C1150       C  0.90130771  0.64935189  0.13139847     0.27100
C1151       C  0.90036686  0.62452372  0.10134535     0.27100
C1152       C  0.83318723  0.65984706  0.16469744     0.35700
C1153       C  0.87215534  0.66127412  0.16269415     0.35700
C1154       C  0.83063286  0.59686579  0.08372654     0.35700
C1155       C  0.86975104  0.59741525  0.08286625     0.35700
C1156       C  0.77871338  0.64835843  0.12567357    -0.21700
C1157       C  0.77803940  0.63298931  0.10622177    -0.21700
C1158       C  0.92242069  0.65310038  0.11867432    -0.21700
C1159       C  0.92182424  0.63738264  0.09964573    -0.21700
C1160       C  0.84131823  0.66929069  0.18636752    -0.22800
C1161       C  0.86607967  0.67029150  0.18504389    -0.22800
C1162       C  0.83755404  0.57786135  0.06910989    -0.22800
C1163       C  0.86240713  0.57814756  0.06864984    -0.22800
C1164       C  0.80874734  0.65759772  0.15768624    -0.18200
C1165       C  0.80654599  0.60365272  0.08843022    -0.18200
C1166       C  0.89388249  0.60506906  0.08638581    -0.18100
C1167       C  0.89562849  0.66093904  0.15309563    -0.18100
H1168       H  0.76405832  0.65965470  0.13168624     0.14800
H1169       H  0.76279645  0.63020383  0.09430725     0.14800
H1170       H  0.93690728  0.66562659  0.12283588     0.14800
H1171       H  0.93577543  0.63535036  0.08628254     0.14800
H1172       H  0.83053317  0.67524550  0.20137358     0.13000
H1173       H  0.87819459  0.67721275  0.19874883     0.13000
H1174       H  0.82592145  0.56523396  0.05966346     0.13000
H1175       H  0.87373618  0.56581330  0.05875740     0.13000
H1176       H  0.83133888  0.62344054  0.12805364     0.26300
H1177       H  0.87220627  0.62411811  0.12724331     0.26300
N1178       N  0.62572186  0.82152304  0.12762338    -0.36500
N1179       N  0.60412194  0.85989541  0.09894927    -0.57000
N1180       N  0.63152825  0.89504351  0.12619114    -0.36500
N1181       N  0.65058121  0.85683852  0.15724791    -0.57000
C1182       C  0.60839843  0.80917815  0.11554758     0.27100
C1183       C  0.63301365  0.80754735  0.14603253     0.27100
C1184       C  0.61615159  0.90963820  0.11430446     0.27100
C1185       C  0.64106606  0.90809181  0.14442321     0.27100
C1186       C  0.59656692  0.84065997  0.08602503     0.35700
C1187       C  0.59905122  0.87956022  0.08577113     0.35700
C1188       C  0.66071146  0.83672697  0.16628023     0.35700
C1189       C  0.66376598  0.87567695  0.16555760     0.35700
C1190       C  0.60469043  0.78702734  0.12636690    -0.21700
C1191       C  0.62026267  0.78599023  0.14557973    -0.21700
C1192       C  0.61622572  0.93227203  0.12488793    -0.21700
C1193       C  0.63204180  0.93137373  0.14374625    -0.21700
C1194       C  0.58649500  0.84813717  0.06454206    -0.22800
C1195       C  0.58797321  0.87285700  0.06444657    -0.22800
C1196       C  0.68022649  0.84285154  0.18075476    -0.22800
C1197       C  0.68206155  0.86757695  0.18042288    -0.22800
C1198       C  0.59693509  0.81664526  0.09416006    -0.18200
C1199       C  0.65193643  0.81303749  0.16229619    -0.18200
C1200       C  0.65867927  0.90012018  0.16089804    -0.18100
C1201       C  0.60262854  0.90349938  0.09364994    -0.18100
H1202       H  0.59226458  0.77292446  0.12081190     0.14800
H1203       H  0.62213388  0.77099508  0.15773341     0.14800
H1204       H  0.60610861  0.94795026  0.11947755     0.14800
H1205       H  0.63637697  0.94635521  0.15550501     0.14800
H1206       H  0.57851533  0.83697896  0.05060538     0.13000
H1207       H  0.58144578  0.88457048  0.05044336     0.13000
H1208       H  0.69175085  0.83080340  0.19071645     0.13000
H1209       H  0.69528463  0.87835953  0.19006264     0.13000
H1210       H  0.63327662  0.83781797  0.12254553     0.26300
H1211       H  0.63628498  0.87761610  0.12152023     0.26300
O1212       O  0.71357797  0.49265092  0.68662558    -0.78400
C1213       C  0.77036277  0.54970714  0.69640521     0.82700
O1214       O  0.77554408  0.46354605  0.73969165    -0.79500
O1215       O  0.76778732  0.54585069  0.77063868    -0.80900
O1216       O  0.68640891  0.53620772  0.75886970    -0.80700
O1217       O  0.68441654  0.49158875  0.71381261    -0.79400
Zn1218     Zn  0.74281081  0.50325138  0.70500595     1.55700
O1219       O  0.71579279  0.56335983  0.75636602    -0.80800
Cd1220     Cd  0.70125128  0.50608608  0.74338495     1.59700
Cd1221     Cd  0.75488049  0.48753430  0.76035226     1.59600
O1222       O  0.69542696  0.48129621  0.76906237    -0.80800
O1223       O  0.73621027  0.50948529  0.73809091    -1.91300
Cd1224     Cd  0.74403476  0.54376794  0.74329762     1.59900
O1225       O  0.73092983  0.46721292  0.78141481    -0.80700
O1226       O  0.76226516  0.55927860  0.71545496    -0.79400
C1227       C  0.77518255  0.46103326  0.71691301     0.83200
C1228       C  0.69250816  0.48625412  0.69316981     0.82800
O1229       O  0.76334114  0.52888881  0.68954580    -0.78300
C1230       C  0.69528046  0.55680109  0.76411022     0.83600
O1231       O  0.76317665  0.47476173  0.70340722    -0.78400
C1232       C  0.70790373  0.46772620  0.78235268     0.83800
C1233       C  0.77872616  0.53170750  0.78463310     0.84100
O1234       O  0.77653984  0.50878871  0.78336662    -0.80800
O1235       O  0.05305755  0.02657648  0.48362789    -0.78400
C1236       C  0.04254142  0.97823010  0.54490075     0.82700
O1237       O  0.99641051  0.96699445  0.45719139    -0.79500
O1238       O  0.96815672  0.97812657  0.54054395    -0.80900
O1239       O  0.98358119  0.06153845  0.52577790    -0.80700
O1240       O  0.02776900  0.05710168  0.48066690    -0.79400
Zn1241     Zn  0.03285163  0.99972590  0.49618961     1.55700
O1242       O  0.97830277  0.03270638  0.55276911    -0.80800
Cd1243     Cd  0.99794397  0.04291389  0.49727740     1.59700
Cd1244     Cd  0.97653439  0.98862213  0.48169200     1.59600
O1245       O  0.97285978  0.04798378  0.47196344    -0.80800
O1246       O  0.00012795  0.00791346  0.50251551    -1.91300
Cd1247     Cd  0.99452334  0.00305374  0.53712191     1.59900
O1248       O  0.95541120  0.01307520  0.46155364    -0.80700
O1249       O  0.02377085  0.98744225  0.55429066    -0.79400
C1250       C  0.01938778  0.96594030  0.45513040     0.83200
C1251       C  0.04762107  0.04705743  0.47530703     0.82800
O1252       O  0.04789617  0.98224151  0.52315993    -0.78300
C1253       C  0.97408927  0.05382515  0.54500732     0.83600
O1254       O  0.03343817  0.97736923  0.46911013    -0.78400
C1255       C  0.95764787  0.03597405  0.45977834     0.83800
C1256       C  0.95391911  0.96604066  0.52724677     0.84100
O1257       O  0.95434602  0.96727564  0.50430901    -0.80800
C1258       C  0.53948242  0.05218357  0.73967790     0.80400
N1259       N  0.51838998  0.06007741  0.73003192    -0.77900
C1260       C  0.50856476  0.04922698  0.71029104     0.82800
N1261       N  0.52051802  0.03057595  0.70003237    -0.77900
C1262       C  0.54173162  0.02251389  0.70914506     0.82900
N1263       N  0.55108289  0.03343928  0.72903689    -0.79600
C1264       C  0.72673444  0.05883242  0.54739556     0.80400
N1265       N  0.71767586  0.03853320  0.55755033    -0.77900
C1266       C  0.69732708  0.02785504  0.54887722     0.82800
N1267       N  0.68614439  0.03763936  0.52960502    -0.77900
C1268       C  0.69465330  0.05801426  0.51927004     0.82900
N1269       N  0.71498537  0.06854734  0.52837682    -0.79600
C1270       C  0.53405267  0.23407699  0.54679460     0.80400
N1271       N  0.51502419  0.22251678  0.55680180    -0.77900
C1272       C  0.50471869  0.20305216  0.54602227     0.82800
N1273       N  0.51408295  0.19490950  0.52501440    -0.77900
C1274       C  0.53336714  0.20598876  0.51471043     0.82900
N1275       N  0.54340376  0.22547774  0.52594143    -0.79600
N1276       N  0.61345147  0.13079061  0.42952287    -0.36500
N1277       N  0.58936656  0.15711774  0.39101452    -0.57000
N1278       N  0.61957057  0.13218161  0.35655614    -0.36500
N1279       N  0.64589286  0.10858561  0.39504073    -0.57000
C1280       C  0.60061539  0.14700927  0.44228410     0.27100
C1281       C  0.63052586  0.12178659  0.44433311     0.27100
C1282       C  0.60909466  0.14859880  0.34220850     0.27100
C1283       C  0.63827082  0.12280860  0.34431337     0.27100
C1284       C  0.57482210  0.16333403  0.40937926     0.35700
C1285       C  0.57817008  0.16405377  0.37063327     0.35700
C1286       C  0.65265642  0.09645876  0.41480771     0.35700
C1287       C  0.65526434  0.09661134  0.37617229     0.35700
C1288       C  0.60944458  0.14804492  0.46559640    -0.21700
C1289       C  0.62829953  0.13216509  0.46686971    -0.21700
C1290       C  0.62126895  0.14958713  0.32054475    -0.21700
C1291       C  0.63962587  0.13324825  0.32184869    -0.21700
C1292       C  0.55439147  0.17466343  0.40065846    -0.22800
C1293       C  0.55651214  0.17510358  0.37607065    -0.22800
C1294       C  0.66675851  0.07689037  0.40851682    -0.22800
C1295       C  0.66844818  0.07701418  0.38397083    -0.22800
C1296       C  0.58043267  0.16012197  0.43392207    -0.18200
C1297       C  0.64734254  0.10361702  0.43849611    -0.18200
C1298       C  0.65307966  0.10387092  0.35211170    -0.18100
C1299       C  0.58786185  0.16149780  0.34733606    -0.18100
H1300       H  0.60292527  0.15903304  0.48026238     0.14800
H1301       H  0.63908217  0.12859782  0.48265790     0.14800
H1302       H  0.61713233  0.16062716  0.30517156     0.14800
H1303       H  0.65231217  0.12928989  0.30769334     0.14800
H1304       H  0.53959623  0.18196138  0.41094821     0.13000
H1305       H  0.54370419  0.18281738  0.36364302     0.13000
H1306       H  0.67512156  0.06402242  0.42038432     0.13000
H1307       H  0.67838892  0.06427975  0.37312950     0.13000
H1308       H  0.60985851  0.12522257  0.41211197     0.26300
H1309       H  0.61330837  0.12642131  0.37301306     0.26300
N1310       N  0.42198532  0.12000627  0.62587919    -0.36500
N1311       N  0.38452816  0.10083290  0.65664975    -0.57000
N1312       N  0.34803979  0.12247580  0.62552977    -0.36500
N1313       N  0.38530158  0.14415365  0.59675611    -0.57000
C1314       C  0.43557256  0.11140744  0.64411951     0.27100
C1315       C  0.43596876  0.13540576  0.61326683     0.27100
C1316       C  0.33461412  0.11619755  0.64459868     0.27100
C1317       C  0.33500493  0.13850444  0.61290002     0.27100
C1318       C  0.40349462  0.08880414  0.66589822     0.35700
C1319       C  0.36447205  0.09065272  0.66590339     0.35700
C1320       C  0.40506278  0.14964925  0.58384213     0.35700
C1321       C  0.36601556  0.14999768  0.58314556     0.35700
C1322       C  0.45868348  0.12102044  0.64268344    -0.21700
C1323       C  0.45887703  0.13627277  0.62337554    -0.21700
C1324       C  0.31274606  0.12819766  0.64403654    -0.21700
C1325       C  0.31298643  0.14230599  0.62398308    -0.21700
C1326       C  0.39545464  0.07121622  0.68152983    -0.22800
C1327       C  0.37069533  0.07231953  0.68144917    -0.22800
C1328       C  0.39831217  0.15926782  0.56195042    -0.22800
C1329       C  0.37350921  0.15937719  0.56146860    -0.22800
C1330       C  0.42797230  0.09444525  0.66147345    -0.18200
C1331       C  0.42903186  0.14798786  0.59232997    -0.18200
C1332       C  0.34187651  0.14882307  0.59097129    -0.18100
C1333       C  0.34069711  0.09851353  0.66145013    -0.18100
H1334       H  0.47391187  0.11749085  0.65430281     0.14800
H1335       H  0.47427618  0.14662522  0.61733320     0.14800
H1336       H  0.29800524  0.12667641  0.65660764     0.14800
H1337       H  0.29848445  0.15386575  0.61812343     0.14800
H1338       H  0.40626646  0.05899581  0.69204796     0.13000
H1339       H  0.35867808  0.06109154  0.69184170     0.13000
H1340       H  0.41004060  0.16578439  0.54792370     0.13000
H1341       H  0.36229579  0.16606071  0.54707297     0.13000
H1342       H  0.40450636  0.11482789  0.62161565     0.26300
H1343       H  0.36436555  0.11494100  0.62058050     0.26300
C1344       C  0.70238421  0.21517848  0.73528033     0.80400
N1345       N  0.72283822  0.20624786  0.72535391    -0.77900
C1346       C  0.73300121  0.21664882  0.70578946     0.82800
N1347       N  0.72195641  0.23597571  0.69563447    -0.77900
C1348       C  0.70145971  0.24530816  0.70532229     0.82900
N1349       N  0.69183309  0.23462935  0.72500975    -0.79600
N1350       N  0.61249273  0.32274014  0.62794717    -0.36500
N1351       N  0.58613894  0.35640461  0.59800038    -0.57000
N1352       N  0.61385062  0.39568923  0.61835693    -0.36500
N1353       N  0.64237638  0.36201702  0.64626496    -0.57000
C1354       C  0.60202769  0.30783058  0.61160409     0.27100
C1355       C  0.63134187  0.31082318  0.63766000     0.27100
C1356       C  0.60318342  0.40670758  0.59966642     0.27100
C1357       C  0.63259536  0.40970932  0.62520436     0.27100
C1358       C  0.57235062  0.33651537  0.59497296     0.35700
C1359       C  0.57287211  0.37515846  0.59029351     0.35700
C1360       C  0.64933377  0.34436170  0.66129152     0.35700
C1361       C  0.64977490  0.38302828  0.65628418     0.35700
C1362       C  0.61436312  0.28617745  0.61095628    -0.21700
C1363       C  0.63282946  0.28804381  0.62746022    -0.21700
C1364       C  0.61531473  0.42796183  0.59451165    -0.21700
C1365       C  0.63390920  0.42990500  0.61075720    -0.21700
C1366       C  0.55015200  0.34264709  0.58525534    -0.22800
C1367       C  0.55052053  0.36721302  0.58222049    -0.22800
C1368       C  0.66148907  0.35416410  0.68084024    -0.22800
C1369       C  0.66176078  0.37873739  0.67766141    -0.22800
C1370       C  0.58073389  0.31281309  0.59844642    -0.18200
C1371       C  0.64624025  0.31949750  0.65652924    -0.18200
C1372       C  0.64703952  0.40580425  0.64553082    -0.18100
C1373       C  0.58176793  0.39889850  0.58840525    -0.18100
H1374       H  0.61030416  0.27053315  0.59995938     0.14800
H1375       H  0.64575146  0.27413664  0.63164845     0.14800
H1376       H  0.61093684  0.44094334  0.58079917     0.14800
H1377       H  0.64668548  0.44468612  0.61206499     0.14800
H1378       H  0.53546384  0.33061787  0.58038564     0.13000
H1379       H  0.53623669  0.37793189  0.57452031     0.13000
H1380       H  0.66948438  0.34460167  0.69569803     0.13000
H1381       H  0.67006025  0.39190182  0.68953593     0.13000
H1382       H  0.60618427  0.33952149  0.63331674     0.26300
H1383       H  0.60760283  0.38047972  0.62718181     0.26300
N1384       N  0.61971559  0.93928673  0.62567118    -0.36500
N1385       N  0.59260983  0.90155802  0.64971668    -0.57000
N1386       N  0.61796798  0.86585647  0.62140931    -0.36500
N1387       N  0.64278197  0.90352972  0.59512426    -0.57000
C1388       C  0.60241279  0.95231716  0.63674030     0.27100
C1389       C  0.62924757  0.95327772  0.60831169     0.27100
C1390       C  0.60037949  0.85225358  0.63121358     0.27100
C1391       C  0.62646823  0.85346746  0.60240527     0.27100
C1392       C  0.58671124  0.92050390  0.66378316     0.35700
C1393       C  0.58632961  0.88147980  0.66180730     0.35700
C1394       C  0.65597385  0.92304845  0.58914006     0.35700
C1395       C  0.65487695  0.88420035  0.58684806     0.35700
C1396       C  0.60103080  0.97489142  0.62632862    -0.21700
C1397       C  0.61801534  0.97551745  0.60843536    -0.21700
C1398       C  0.59766648  0.83096504  0.61831467    -0.21700
C1399       C  0.61417972  0.83173890  0.60007031    -0.21700
C1400       C  0.57648066  0.91242795  0.68490868    -0.22800
C1401       C  0.57613434  0.88765493  0.68359928    -0.22800
C1402       C  0.67639768  0.91614881  0.57664131    -0.22800
C1403       C  0.67570668  0.89142077  0.57520268    -0.22800
C1404       C  0.58884984  0.94490058  0.65688110    -0.18200
C1405       C  0.64874184  0.94700606  0.59328922    -0.18200
C1406       C  0.64643631  0.86030319  0.58849323    -0.18100
C1407       C  0.58800914  0.85782988  0.65248702    -0.18100
H1408       H  0.58913791  0.98948696  0.63123544     0.14800
H1409       H  0.62174966  0.99066599  0.59688804     0.14800
H1410       H  0.58535030  0.81623395  0.62189717     0.14800
H1411       H  0.61710183  0.81772904  0.58683726     0.14800
H1412       H  0.56955560  0.92326768  0.69949360     0.13000
H1413       H  0.56892946  0.87558637  0.69697422     0.13000
H1414       H  0.69015400  0.92772662  0.56910610     0.13000
H1415       H  0.68880501  0.88009099  0.56634342     0.13000
H1416       H  0.62577553  0.92238496  0.63066310     0.26300
H1417       H  0.62505949  0.88178167  0.62839949     0.26300
N1418       N  0.81667588  0.13660012  0.62479513    -0.36500
N1419       N  0.85447551  0.16451491  0.64776481    -0.57000
N1420       N  0.89025264  0.13564254  0.62199761    -0.36500
N1421       N  0.85245437  0.11009229  0.59650907    -0.57000
C1422       C  0.80370409  0.15429008  0.63539396     0.27100
C1423       C  0.80264126  0.12665372  0.60743208     0.27100
C1424       C  0.90406675  0.15394346  0.63039228     0.27100
C1425       C  0.90300978  0.12462227  0.60457435     0.27100
C1426       C  0.83578983  0.17164383  0.66155694     0.35700
C1427       C  0.87484322  0.17190020  0.65906838     0.35700
C1428       C  0.83233098  0.09786545  0.58996021     0.35700
C1429       C  0.87142084  0.09657892  0.58952561     0.35700
C1430       C  0.78112475  0.15552035  0.62471012    -0.21700
C1431       C  0.78047238  0.13814755  0.60702431    -0.21700
C1432       C  0.92581426  0.15458086  0.61818757    -0.21700
C1433       C  0.92518106  0.13597910  0.60192302    -0.21700
C1434       C  0.84434317  0.18388869  0.68162147    -0.22800
C1435       C  0.86911369  0.18417313  0.67996523    -0.22800
C1436       C  0.83853258  0.07660276  0.57839942    -0.22800
C1437       C  0.86336116  0.07577695  0.57816494    -0.22800
C1438       C  0.81116042  0.16829802  0.65545219    -0.18200
C1439       C  0.80852173  0.10627063  0.59324203    -0.18200
C1440       C  0.89582426  0.10365978  0.59207461    -0.18100
C1441       C  0.89843499  0.16887330  0.65002376    -0.18100
H1442       H  0.76654130  0.16753918  0.62933909     0.14800
H1443       H  0.76522197  0.13412868  0.59545852     0.14800
H1444       H  0.94076250  0.16693873  0.62098323     0.14800
H1445       H  0.93951106  0.13123155  0.58968607     0.14800
H1446       H  0.83386847  0.19195266  0.69585335     0.13000
H1447       H  0.88148380  0.19252680  0.69262540     0.13000
H1448       H  0.82644127  0.06316060  0.57083306     0.13000
H1449       H  0.87422200  0.06166074  0.57032668     0.13000
H1450       H  0.83346599  0.13048228  0.63022912     0.26300
H1451       H  0.87387714  0.12993665  0.62897343     0.26300
N1452       N  0.61953228  0.13773764  0.82118881    -0.36500
N1453       N  0.65069669  0.16064256  0.85697419    -0.57000
N1454       N  0.62459979  0.13520242  0.89443390    -0.36500
N1455       N  0.59568426  0.11006697  0.85865072    -0.57000
C1456       C  0.63717378  0.14719770  0.80731401     0.27100
C1457       C  0.60828394  0.12024965  0.80817746     0.27100
C1458       C  0.64382562  0.14383467  0.90674911     0.27100
C1459       C  0.61500886  0.11726641  0.90763398     0.27100
C1460       C  0.65698219  0.17380801  0.83766388     0.35700
C1461       C  0.65943902  0.17246305  0.87644472     0.35700
C1462       C  0.58130296  0.10415343  0.83988635     0.35700
C1463       C  0.58388156  0.10317815  0.87864325     0.35700
C1464       C  0.63705390  0.13566700  0.78519829    -0.21700
C1465       C  0.61883541  0.11869295  0.78573542    -0.21700
C1466       C  0.64647843  0.13131716  0.92801581    -0.21700
C1467       C  0.62824157  0.11451950  0.92858068    -0.21700
C1468       C  0.67001348  0.19400992  0.84488655    -0.22800
C1469       C  0.67157929  0.19314736  0.86949616    -0.22800
C1470       C  0.56027143  0.09333837  0.84799156    -0.22800
C1471       C  0.56193458  0.09268900  0.87259706    -0.22800
C1472       C  0.65246528  0.16685673  0.81359468    -0.18200
C1473       C  0.58792446  0.10657306  0.81556316    -0.18200
C1474       C  0.59373750  0.10438529  0.90201271    -0.18100
C1475       C  0.65787857  0.16390973  0.90020270    -0.18100
H1476       H  0.64876709  0.13925840  0.77015389     0.14800
H1477       H  0.61382873  0.10666887  0.77117798     0.14800
H1478       H  0.65994103  0.13424040  0.94186202     0.14800
H1479       H  0.62493335  0.10191710  0.94292864     0.14800
H1480       H  0.67778541  0.20778120  0.83360239     0.13000
H1481       H  0.68080814  0.20609061  0.88093277     0.13000
H1482       H  0.54547135  0.08630645  0.83727634     0.13000
H1483       H  0.54873793  0.08501356  0.88462699     0.13000
H1484       H  0.61448549  0.14389152  0.83804301     0.26300
H1485       H  0.61745048  0.14230435  0.87878600     0.26300
C1486       C  0.01627049  0.71034926  0.54372126     0.80400
N1487       N  0.02801276  0.72850337  0.55540996    -0.77900
C1488       C  0.04919481  0.73737290  0.54701298     0.82800
N1489       N  0.05860169  0.72793686  0.52663405    -0.77900
C1490       C  0.04726908  0.70980433  0.51456555     0.82900
N1491       N  0.02615752  0.70092093  0.52342082    -0.79600
N1492       N  0.12489579  0.63358064  0.42476335    -0.36500
N1493       N  0.15733140  0.61671659  0.38849992    -0.57000
N1494       N  0.12609672  0.64004381  0.35192771    -0.36500
N1495       N  0.09606098  0.65967794  0.38881469    -0.57000
C1496       C  0.14152293  0.62216696  0.43850375     0.27100
C1497       C  0.11233116  0.64847939  0.43934137     0.27100
C1498       C  0.14860435  0.63934581  0.34295397     0.27100
C1499       C  0.11536615  0.65944200  0.34226229     0.27100
C1500       C  0.16392826  0.60139167  0.40598793     0.35700
C1501       C  0.16658756  0.60810809  0.36786866     0.35700
C1502       C  0.08516143  0.66793835  0.40882979     0.35700
C1503       C  0.08361446  0.66835255  0.36974867     0.35700
C1504       C  0.13914007  0.62958866  0.46212491    -0.21700
C1505       C  0.12100073  0.64632226  0.46261680    -0.21700
C1506       C  0.15252575  0.65873444  0.32798080    -0.21700
C1507       C  0.13167429  0.67213528  0.32840280    -0.21700
C1508       C  0.17802565  0.58314809  0.39648500    -0.22800
C1509       C  0.17957249  0.58733080  0.37217427    -0.22800
C1510       C  0.06598792  0.68251903  0.40256616    -0.22800
C1511       C  0.06522934  0.68312548  0.37796453    -0.22800
C1512       C  0.15831579  0.60468011  0.43048112    -0.18200
C1513       C  0.09273903  0.66349388  0.43270959    -0.18200
C1514       C  0.09091206  0.66497789  0.34543434    -0.18100
C1515       C  0.16409603  0.61978622  0.34566753    -0.18100
H1516       H  0.14946753  0.62369683  0.47748146     0.14800
H1517       H  0.11475885  0.65567286  0.47847515     0.14800
H1518       H  0.16863103  0.66268832  0.31782009     0.14800
H1519       H  0.12849242  0.68876288  0.31891846     0.14800
H1520       H  0.18632801  0.56844559  0.40604889     0.13000
H1521       H  0.18938470  0.57659702  0.35926626     0.13000
H1522       H  0.05427434  0.69246377  0.41447559     0.13000
H1523       H  0.05353098  0.69471853  0.36773317     0.13000
H1524       H  0.12164893  0.63066087  0.40666263     0.26300
H1525       H  0.11782116  0.62686049  0.36240132     0.26300
C1526       C  0.24136463  0.71070828  0.69875150     0.80400
N1527       N  0.23137980  0.70016819  0.71839516    -0.77900
C1528       C  0.21240277  0.71055497  0.72986328     0.82800
N1529       N  0.20375869  0.73178554  0.72162126    -0.77900
C1530       C  0.21357293  0.74268640  0.70223901     0.82900
N1531       N  0.23228343  0.73194382  0.69084273    -0.79600
C1532       C  0.20342795  0.52083529  0.53830559     0.80400
N1533       N  0.22418558  0.53023294  0.54758138    -0.77900
C1534       C  0.23495238  0.54975835  0.53757416     0.82800
N1535       N  0.22444317  0.56006819  0.51810399    -0.77900
C1536       C  0.20372445  0.55093285  0.50828093     0.82900
N1537       N  0.19341405  0.53125611  0.51862204    -0.79600
N1538       N  0.32336090  0.62914662  0.61649941    -0.36500
N1539       N  0.35955740  0.60023412  0.59183606    -0.57000
N1540       N  0.39752195  0.62648261  0.61759513    -0.36500
N1541       N  0.36123225  0.65292785  0.64461887    -0.57000
C1542       C  0.30934159  0.61185638  0.60619844     0.27100
C1543       C  0.31022165  0.63968284  0.63405040     0.27100
C1544       C  0.41062704  0.60897907  0.60705786     0.27100
C1545       C  0.41143319  0.63636213  0.63503754     0.27100
C1546       C  0.33982861  0.59337357  0.57909834     0.35700
C1547       C  0.37898031  0.59229622  0.57956417     0.35700
C1548       C  0.34218639  0.66634550  0.65153475     0.35700
C1549       C  0.38129334  0.66474708  0.65218170     0.35700
C1550       C  0.28697291  0.61151116  0.61725114    -0.21700
C1551       C  0.28751639  0.62906686  0.63477680    -0.21700
C1552       C  0.43325723  0.60792901  0.61772483    -0.21700
C1553       C  0.43372451  0.62514885  0.63546392    -0.21700
C1554       C  0.34675673  0.58072489  0.55878642    -0.22800
C1555       C  0.37155176  0.57997669  0.55912406    -0.22800
C1556       C  0.35017674  0.68672233  0.66375646    -0.22800
C1557       C  0.37496861  0.68566318  0.66423847    -0.22800
C1558       C  0.31564960  0.59731393  0.58620867    -0.18200
C1559       C  0.31771149  0.65937127  0.64867790    -0.18200
C1560       C  0.40513977  0.65610826  0.64968903    -0.18100
C1561       C  0.40326104  0.59483917  0.58722504    -0.18100
H1562       H  0.27174474  0.59993525  0.61298187     0.14800
H1563       H  0.27280195  0.63356440  0.64665023     0.14800
H1564       H  0.44801572  0.59612069  0.61312280     0.14800
H1565       H  0.44888454  0.62913676  0.64715878     0.14800
H1566       H  0.33517366  0.57272651  0.54520925     0.13000
H1567       H  0.38281300  0.57125891  0.54589799     0.13000
H1568       H  0.33927513  0.70066955  0.67183094     0.13000
H1569       H  0.38695626  0.69866208  0.67269421     0.13000
H1570       H  0.34038897  0.63446163  0.61087813     0.26300
H1571       H  0.38061651  0.63229463  0.61223415     0.26300
C1572       C  0.04849262  0.55550414  0.72132531     0.80400
N1573       N  0.02789345  0.56447508  0.71181449    -0.77900
C1574       C  0.01666263  0.55306614  0.69326509     0.82800
N1575       N  0.02644215  0.53260812  0.68405587    -0.77900
C1576       C  0.04702220  0.52321012  0.69342332     0.82900
N1577       N  0.05778117  0.53486947  0.71209359    -0.79600
N1578       N  0.12138584  0.43415534  0.61369525    -0.36500
N1579       N  0.14429426  0.39686153  0.58481982    -0.57000
N1580       N  0.11822798  0.36041166  0.61262778    -0.36500
N1581       N  0.09308178  0.39768446  0.63900821    -0.57000
C1582       C  0.13222427  0.44768447  0.59666721     0.27100
C1583       C  0.10473913  0.44814336  0.62464946     0.27100
C1584       C  0.12714703  0.34690525  0.59456468     0.27100
C1585       C  0.10070699  0.34722958  0.62320319     0.27100
C1586       C  0.15810824  0.41592096  0.57839989     0.35700
C1587       C  0.15597784  0.37681595  0.57748931     0.35700
C1588       C  0.08607276  0.41734735  0.65145934     0.35700
C1589       C  0.08504273  0.37833089  0.65125144     0.35700
C1590       C  0.12239809  0.47061085  0.59693770    -0.21700
C1591       C  0.10520466  0.47093639  0.61462731    -0.21700
C1592       C  0.11518552  0.32486732  0.59370071    -0.21700
C1593       C  0.09859792  0.32503144  0.61186588    -0.21700
C1594       C  0.17857431  0.40792510  0.56663941    -0.22800
C1595       C  0.17719700  0.38313848  0.56602618    -0.22800
C1596       C  0.07311413  0.41047005  0.67151141    -0.22800
C1597       C  0.07251784  0.38572354  0.67141139    -0.22800
C1598       C  0.15167806  0.44041742  0.58180379    -0.18200
C1599       C  0.08995859  0.44140719  0.64422938    -0.18200
C1600       C  0.08736237  0.35416669  0.64353441    -0.18100
C1601       C  0.14710316  0.35300036  0.58011107    -0.18100
H1602       H  0.12722845  0.48566298  0.58566838     0.14800
H1603       H  0.09433898  0.48629765  0.61958302     0.14800
H1604       H  0.11834233  0.31002043  0.58146669     0.14800
H1605       H  0.08644999  0.31040070  0.61628544     0.14800
H1606       H  0.19288528  0.41881041  0.55911142     0.13000
H1607       H  0.19022097  0.37115196  0.55795454     0.13000
H1608       H  0.06471147  0.42206272  0.68467580     0.13000
H1609       H  0.06352011  0.37448051  0.68443211     0.13000
H1610       H  0.12609636  0.41681518  0.61854291     0.26300
H1611       H  0.12489875  0.37695900  0.61842096     0.26300
N1612       N  0.92813131  0.63040504  0.61683327    -0.36500
N1613       N  0.89068569  0.65793375  0.59316338    -0.57000
N1614       N  0.85459234  0.62618553  0.61470931    -0.36500
N1615       N  0.89200729  0.60100102  0.64086691    -0.57000
C1616       C  0.94105532  0.64920904  0.60831910     0.27100
C1617       C  0.94175839  0.61963463  0.63376867     0.27100
C1618       C  0.84067653  0.64411944  0.60620262     0.27100
C1619       C  0.84139776  0.61447426  0.63134191     0.27100
C1620       C  0.91003647  0.66673552  0.58136583     0.35700
C1621       C  0.87097554  0.66478065  0.58068721     0.35700
C1622       C  0.91197482  0.58897395  0.64760992     0.35700
C1623       C  0.87295259  0.58699327  0.64673355     0.35700
C1624       C  0.96319436  0.65040686  0.61995307    -0.21700
C1625       C  0.96362809  0.63176027  0.63605333    -0.21700
C1626       C  0.81835750  0.64363746  0.61733525    -0.21700
C1627       C  0.81882551  0.62496531  0.63323601    -0.21700
C1628       C  0.90257549  0.67959151  0.56148753    -0.22800
C1629       C  0.87776503  0.67837318  0.56107738    -0.22800
C1630       C  0.90558037  0.56724369  0.65801105    -0.22800
C1631       C  0.88077888  0.56603575  0.65752929    -0.22800
C1632       C  0.93424161  0.66398831  0.58890459    -0.18200
C1633       C  0.93573743  0.59813966  0.64592842    -0.18200
C1634       C  0.84862926  0.59385646  0.64407558    -0.18100
C1635       C  0.84695256  0.66010294  0.58769710    -0.18100
H1636       H  0.97767812  0.66317006  0.61687242     0.14800
H1637       H  0.97853369  0.62737094  0.64780624     0.14800
H1638       H  0.80323113  0.65548238  0.61427024     0.14800
H1639       H  0.80410678  0.61963664  0.64477000     0.14800
H1640       H  0.91379997  0.68897410  0.54871586     0.13000
H1641       H  0.86605277  0.68668176  0.54799004     0.13000
H1642       H  0.91750686  0.55384923  0.66548300     0.13000
H1643       H  0.86976235  0.55156482  0.66454091     0.13000
H1644       H  0.91175277  0.62415182  0.61013924     0.26300
H1645       H  0.87151947  0.62137053  0.60846857     0.26300
N1646       N  0.13049529  0.82513925  0.62491227    -0.36500
N1647       N  0.10358282  0.86030471  0.59698037    -0.57000
N1648       N  0.12790219  0.89857592  0.62326889    -0.36500
N1649       N  0.15712502  0.86355916  0.64893731    -0.57000
C1650       C  0.12091650  0.81109482  0.60734565     0.27100
C1651       C  0.14907231  0.81287446  0.63473303     0.27100
C1652       C  0.11714197  0.91119380  0.60565459     0.27100
C1653       C  0.14512424  0.91296810  0.63289815     0.27100
C1654       C  0.09122500  0.84013923  0.59090835     0.35700
C1655       C  0.08987294  0.87908768  0.59010454     0.35700
C1656       C  0.16487844  0.84476050  0.66209243     0.35700
C1657       C  0.16328793  0.88373423  0.66121991     0.35700
C1658       C  0.13350642  0.78962130  0.60601841    -0.21700
C1659       C  0.15132041  0.79076902  0.62325699    -0.21700
C1660       C  0.12760376  0.93387768  0.60408878    -0.21700
C1661       C  0.14525064  0.93503043  0.62136489    -0.21700
C1662       C  0.06963780  0.84612586  0.57983936    -0.22800
C1663       C  0.06881348  0.87087447  0.57928595    -0.22800
C1664       C  0.17631166  0.85303362  0.68273065    -0.22800
C1665       C  0.17538544  0.87778103  0.68212713    -0.22800
C1666       C  0.10018283  0.81651584  0.59353410    -0.18200
C1667       C  0.16284711  0.82035826  0.65492537    -0.18200
C1668       C  0.15937225  0.90741391  0.65302376    -0.18100
C1669       C  0.09696297  0.90346074  0.59219983    -0.18100
H1670       H  0.13005844  0.77458048  0.59402260     0.14800
H1671       H  0.16420477  0.77675134  0.62719358     0.14800
H1672       H  0.12275154  0.94826269  0.59202412     0.14800
H1673       H  0.15660203  0.95051756  0.62521556     0.14800
H1674       H  0.05608862  0.83394755  0.57260844     0.13000
H1675       H  0.05452672  0.88158869  0.57158599     0.13000
H1676       H  0.18460473  0.84238999  0.69666128     0.13000
H1677       H  0.18286126  0.88998806  0.69546019     0.13000
H1678       H  0.12362476  0.84141280  0.63099009     0.26300
H1679       H  0.12262550  0.88182440  0.62957190     0.26300
N1680       N  0.13138141  0.62847885  0.81053362    -0.36500
N1681       N  0.15958280  0.65057663  0.84872459    -0.57000
N1682       N  0.12934245  0.62551126  0.88333360    -0.36500
N1683       N  0.10338784  0.60098196  0.84534583    -0.57000
C1684       C  0.14990115  0.63807537  0.79797534     0.27100
C1685       C  0.12014003  0.61222283  0.79613976     0.27100
C1686       C  0.14737476  0.63401829  0.89732932     0.27100
C1687       C  0.11848327  0.60759591  0.89552113     0.27100
C1688       C  0.16712406  0.66409825  0.83016217     0.35700
C1689       C  0.16520841  0.66305439  0.86883177     0.35700
C1690       C  0.09024014  0.59641243  0.82543056     0.35700
C1691       C  0.08954825  0.59455053  0.86412729     0.35700
C1692       C  0.15034834  0.62788491  0.77523619    -0.21700
C1693       C  0.13159127  0.61154322  0.77408193    -0.21700
C1694       C  0.14811007  0.62134420  0.91865336    -0.21700
C1695       C  0.12979858  0.60459047  0.91750569    -0.21700
C1696       C  0.17792338  0.68513651  0.83849935    -0.22800
C1697       C  0.17665284  0.68449815  0.86309460    -0.22800
C1698       C  0.06801112  0.58666661  0.83155551    -0.22800
C1699       C  0.06757970  0.58548979  0.85617371    -0.22800
C1700       C  0.16519963  0.65707277  0.80588838    -0.18200
C1701       C  0.09889957  0.59918854  0.80183381    -0.18200
C1702       C  0.09727975  0.59556241  0.88819554    -0.18100
C1703       C  0.16157106  0.65439255  0.89222802    -0.18100
H1704       H  0.16270222  0.63204669  0.76085555     0.14800
H1705       H  0.12673334  0.60064941  0.75862328     0.14800
H1706       H  0.16024328  0.62423861  0.93366656     0.14800
H1707       H  0.12501093  0.59200735  0.93146036     0.14800
H1708       H  0.18592310  0.69937701  0.82796707     0.13000
H1709       H  0.18359289  0.69807403  0.87535449     0.13000
H1710       H  0.05373701  0.58079338  0.81953407     0.13000
H1711       H  0.05294135  0.57856445  0.86695696     0.13000
H1712       H  0.12565557  0.63389003  0.82738460     0.26300
H1713       H  0.12350379  0.63298097  0.86732696     0.26300
C1714       C  0.80060665  0.27219725  0.29219487     0.80400
N1715       N  0.81078695  0.28346233  0.27321869    -0.77900
C1716       C  0.80191154  0.30441205  0.26453638     0.82800
N1717       N  0.78256818  0.31460329  0.27551208    -0.77900
C1718       C  0.77209305  0.30398272  0.29486107     0.82900
N1719       N  0.78120094  0.28269727  0.30295261    -0.79600
N1720       N  0.67724272  0.37761084  0.37213419    -0.36500
N1721       N  0.64397527  0.34804821  0.34437405    -0.57000
N1722       N  0.60359213  0.37501377  0.36533401    -0.36500
N1723       N  0.63675709  0.40207378  0.39573347    -0.57000
C1724       C  0.69260810  0.36098342  0.36309042     0.27100
C1725       C  0.68876813  0.38906969  0.39038099     0.27100
C1726       C  0.59176818  0.35664728  0.35436147     0.27100
C1727       C  0.58802980  0.38504340  0.38104823     0.27100
C1728       C  0.66476660  0.34171192  0.33342509     0.35700
C1729       C  0.62571749  0.34013893  0.33016614     0.35700
C1730       C  0.65518635  0.41540942  0.40473777     0.35700
C1731       C  0.61620076  0.41396700  0.40101385     0.35700
C1732       C  0.71419041  0.36197133  0.37572102    -0.21700
C1733       C  0.71179107  0.37967680  0.39289237    -0.21700
C1734       C  0.56839927  0.35509950  0.36306609    -0.21700
C1735       C  0.56602472  0.37304364  0.37986040    -0.21700
C1736       C  0.65966714  0.32940678  0.31230260    -0.22800
C1737       C  0.63492425  0.32839704  0.31024696    -0.22800
C1738       C  0.64626913  0.43575365  0.41613248    -0.22800
C1739       C  0.62153232  0.43479766  0.41382282    -0.22800
C1740       C  0.68822528  0.34590330  0.34288559    -0.18200
C1741       C  0.67982709  0.40888684  0.40376829    -0.18200
C1742       C  0.59267344  0.40540909  0.39566599    -0.18100
C1743       C  0.60087964  0.34217739  0.33562679    -0.18100
H1744       H  0.73012393  0.35120256  0.37273288     0.14800
H1745       H  0.72556413  0.38518171  0.40564310     0.14800
H1746       H  0.55439495  0.34246592  0.35772455     0.14800
H1747       H  0.54985015  0.37686171  0.38996353     0.14800
H1748       H  0.67242397  0.32182703  0.29976106     0.13000
H1749       H  0.62484752  0.31984512  0.29584026     0.13000
H1750       H  0.65649772  0.44967708  0.42537244     0.13000
H1751       H  0.60891182  0.44780089  0.42091199     0.13000
H1752       H  0.66048859  0.38206718  0.36526431     0.26300
H1753       H  0.62074223  0.38121176  0.36122810     0.26300
C1754       C  0.75895912  0.46134122  0.44881406     0.80400
N1755       N  0.77118125  0.47945943  0.43801796    -0.77900
C1756       C  0.79178284  0.48871703  0.44763824     0.82800
N1757       N  0.80004120  0.47993004  0.46879705    -0.77900
C1758       C  0.78785235  0.46209394  0.48027436     0.82900
N1759       N  0.76746887  0.45280775  0.46999589    -0.79600
C1760       C  0.96001579  0.46128847  0.26502890     0.80400
N1761       N  0.97964203  0.45243057  0.27669674    -0.77900
C1762       C  0.98778899  0.46256761  0.29747556     0.82800
N1763       N  0.97583746  0.48169787  0.30673405    -0.77900
C1764       C  0.95616499  0.49091837  0.29556335     0.82900
N1765       N  0.94843077  0.48073021  0.27457533    -0.79600
C1766       C  0.98227750  0.30535174  0.45594438     0.80400
N1767       N  0.97197525  0.28576551  0.44512060    -0.77900
C1768       C  0.95082961  0.27625257  0.45311744     0.82800
N1769       N  0.94015973  0.28633469  0.47264740    -0.77900
C1770       C  0.95028305  0.30565040  0.48410747     0.82900
N1771       N  0.97121376  0.31511145  0.47544158    -0.79600
N1772       N  0.07134119  0.38644715  0.38411332    -0.36500
N1773       N  0.10875879  0.36079542  0.41071684    -0.57000
N1774       N  0.14525527  0.38215099  0.37922211    -0.36500
N1775       N  0.10799002  0.41045246  0.35535565    -0.57000
C1776       C  0.05800875  0.37701208  0.40206638     0.27100
C1777       C  0.05762461  0.40301435  0.37278601     0.27100
C1778       C  0.15944039  0.37149594  0.39575270     0.27100
C1779       C  0.15911916  0.39841788  0.36759759     0.27100
C1780       C  0.08903581  0.34978236  0.41994352     0.35700
C1781       C  0.12807965  0.34746827  0.41717594     0.35700
C1782       C  0.08812471  0.41774317  0.34332753     0.35700
C1783       C  0.12721246  0.41635167  0.34170525     0.35700
C1784       C  0.03545950  0.38774121  0.40215630    -0.21700
C1785       C  0.03524125  0.40417387  0.38375327    -0.21700
C1786       C  0.18268394  0.38075587  0.39433107    -0.21700
C1787       C  0.18245754  0.39781995  0.37664387    -0.21700
C1788       C  0.09595167  0.32968486  0.43282296    -0.22800
C1789       C  0.12065734  0.32823708  0.43109458    -0.22800
C1790       C  0.09480749  0.42852265  0.32199138    -0.22800
C1791       C  0.11957101  0.42775848  0.32103719    -0.22800
C1792       C  0.06487753  0.35766745  0.41711277    -0.18200
C1793       C  0.06412617  0.41584604  0.35181631    -0.18200
C1794       C  0.15163669  0.41312739  0.34841447    -0.18100
C1795       C  0.15240565  0.35276840  0.41127923    -0.18100
H1796       H  0.02055834  0.38385170  0.41402441     0.14800
H1797       H  0.02012907  0.41533754  0.37870133     0.14800
H1798       H  0.19823207  0.37572129  0.40493691     0.14800
H1799       H  0.19782032  0.40844740  0.37098542     0.14800
H1800       H  0.08440011  0.31730849  0.44242119     0.13000
H1801       H  0.13185952  0.31453362  0.43909546     0.13000
H1802       H  0.08309542  0.43631833  0.30859077     0.13000
H1803       H  0.13069980  0.43486012  0.30681149     0.13000
H1804       H  0.08817074  0.38061084  0.37878553     0.26300
H1805       H  0.12751402  0.37762524  0.37530323     0.26300
N1806       N  0.86634743  0.38529138  0.56743117    -0.36500
N1807       N  0.88955830  0.35558334  0.60375895    -0.57000
N1808       N  0.85943790  0.37811793  0.64033189    -0.36500
N1809       N  0.83398419  0.40536737  0.60399825    -0.57000
C1810       C  0.87982891  0.37074529  0.55324091     0.27100
C1811       C  0.85007118  0.39654254  0.55324259     0.27100
C1812       C  0.86955004  0.36030414  0.65318171     0.27100
C1813       C  0.84095150  0.38679988  0.65339251     0.27100
C1814       C  0.90397345  0.35010362  0.58503724     0.35700
C1815       C  0.90020174  0.34648387  0.62356332     0.35700
C1816       C  0.82640536  0.41830884  0.58500965     0.35700
C1817       C  0.82393543  0.41539136  0.62370894     0.35700
C1818       C  0.87231654  0.37317159  0.52966130    -0.21700
C1819       C  0.85383374  0.38954480  0.52961356    -0.21700
C1820       C  0.85737096  0.35767454  0.67468992    -0.21700
C1821       C  0.83932089  0.37444005  0.67482903    -0.21700
C1822       C  0.92369708  0.33707399  0.59297503    -0.22800
C1823       C  0.92131753  0.33481348  0.61737404    -0.22800
C1824       C  0.81091785  0.43631402  0.59270853    -0.22800
C1825       C  0.80957654  0.43461595  0.61722719    -0.22800
C1826       C  0.89904380  0.35562585  0.56072746    -0.18200
C1827       C  0.83230648  0.41342400  0.56074614    -0.18200
C1828       C  0.82660498  0.40669601  0.64733885    -0.18100
C1829       C  0.89066788  0.34773166  0.64702499    -0.18100
H1830       H  0.87948419  0.36418447  0.51399287     0.14800
H1831       H  0.84432530  0.39553279  0.51379749     0.14800
H1832       H  0.86133881  0.34526726  0.68903102     0.14800
H1833       H  0.82666070  0.37742279  0.68924373     0.14800
H1834       H  0.93826981  0.32989442  0.58229688     0.13000
H1835       H  0.93361347  0.32547817  0.62917393     0.13000
H1836       H  0.80143969  0.44930840  0.58186734     0.13000
H1837       H  0.79889992  0.44594746  0.62888336     0.13000
H1838       H  0.86863763  0.38801427  0.58561956     0.26300
H1839       H  0.86596367  0.38519768  0.62451870     0.26300
N1840       N  0.88525888  0.38071534  0.17774830    -0.36500
N1841       N  0.90898606  0.40783005  0.13948576    -0.57000
N1842       N  0.88449896  0.37752261  0.10430317    -0.36500
N1843       N  0.85838764  0.35260218  0.14251778    -0.57000
C1844       C  0.89513136  0.39933923  0.19023643     0.27100
C1845       C  0.86810101  0.37058094  0.19178893     0.27100
C1846       C  0.89319873  0.39519415  0.09010526     0.27100
C1847       C  0.86689971  0.36612425  0.09174822     0.27100
C1848       C  0.92162026  0.41656380  0.15844718     0.35700
C1849       C  0.92059692  0.41524671  0.11954723     0.35700
C1850       C  0.85113716  0.34092770  0.16243284     0.35700
C1851       C  0.85101301  0.33910539  0.12359897     0.35700
C1852       C  0.88424952  0.40092623  0.21252639    -0.21700
C1853       C  0.86718012  0.38287203  0.21347269    -0.21700
C1854       C  0.88123944  0.39475828  0.06823332    -0.21700
C1855       C  0.86462401  0.37648604  0.06927941    -0.21700
C1856       C  0.94127335  0.42982247  0.15050821    -0.22800
C1857       C  0.94055222  0.42907731  0.12583136    -0.22800
C1858       C  0.83891495  0.31993994  0.15611008    -0.22800
C1859       C  0.83879050  0.31882016  0.13146237    -0.22800
C1860       C  0.91459284  0.41416449  0.18270655    -0.18200
C1861       C  0.85402884  0.34984645  0.18610614    -0.18200
C1862       C  0.85350319  0.34590488  0.09938826    -0.18100
C1863       C  0.91228947  0.41114672  0.09584921    -0.18100
H1864       H  0.88824424  0.41375161  0.22670880     0.14800
H1865       H  0.85555006  0.37909156  0.22853402     0.14800
H1866       H  0.88415284  0.40638176  0.05301463     0.14800
H1867       H  0.85232281  0.37138355  0.05498231     0.14800
H1868       H  0.95445775  0.43942433  0.16135104     0.13000
H1869       H  0.95308060  0.43791768  0.11388608     0.13000
H1870       H  0.83065691  0.30697904  0.16798565     0.13000
H1871       H  0.83037732  0.30488990  0.12056839     0.13000
H1872       H  0.89098104  0.37443388  0.16120314     0.26300
H1873       H  0.89100094  0.37265869  0.12102866     0.26300
N1874       N  0.87169364  0.57561950  0.36947113    -0.36500
N1875       N  0.89793980  0.61354047  0.34600327    -0.57000
N1876       N  0.87122116  0.64916901  0.37489350    -0.36500
N1877       N  0.84283015  0.61117765  0.39581217    -0.57000
C1878       C  0.88200005  0.56328383  0.35119998     0.27100
C1879       C  0.85347458  0.56185576  0.37794122     0.27100
C1880       C  0.88205561  0.66325941  0.35849473     0.27100
C1881       C  0.85270440  0.66196220  0.38415821     0.27100
C1882       C  0.91121256  0.59457773  0.33853609     0.35700
C1883       C  0.91122534  0.63351014  0.34183984     0.35700
C1884       C  0.83639775  0.59091289  0.40745512     0.35700
C1885       C  0.83536795  0.62990668  0.40946617     0.35700
C1886       C  0.87012054  0.54143366  0.34802086    -0.21700
C1887       C  0.85214594  0.54050922  0.36493596    -0.21700
C1888       C  0.87048452  0.68537306  0.35757024    -0.21700
C1889       C  0.85187552  0.68446909  0.37364880    -0.21700
C1890       C  0.93308433  0.60253649  0.32952194    -0.22800
C1891       C  0.93296487  0.62727990  0.33132968    -0.22800
C1892       C  0.82466333  0.59679811  0.42859448    -0.22800
C1893       C  0.82383313  0.62154720  0.42975229    -0.22800
C1894       C  0.90299838  0.57041132  0.33862827    -0.18200
C1895       C  0.83921754  0.56730304  0.39821119    -0.18200
C1896       C  0.83735950  0.65434901  0.40276285    -0.18100
C1897       C  0.90294921  0.65727302  0.34539221    -0.18100
H1898       H  0.87422400  0.52745507  0.33508180     0.14800
H1899       H  0.83968537  0.52568069  0.36755922     0.14800
H1900       H  0.87502565  0.70075476  0.34664315     0.14800
H1901       H  0.83933145  0.69887284  0.37735112     0.14800
H1902       H  0.94737364  0.59170171  0.32198514     0.13000
H1903       H  0.94714118  0.63930964  0.32539808     0.13000
H1904       H  0.81699801  0.58453540  0.44153496     0.13000
H1905       H  0.81553205  0.63216736  0.44376435     0.13000
H1906       H  0.87780612  0.59167939  0.37703140     0.26300
H1907       H  0.87714095  0.63236211  0.38035305     0.26300
N1908       N  0.87716360  0.18557362  0.36990714    -0.36500
N1909       N  0.85424406  0.14671718  0.34213885    -0.57000
N1910       N  0.87818756  0.11192604  0.37282910    -0.36500
N1911       N  0.90373163  0.15067349  0.39822444    -0.57000
C1912       C  0.86683349  0.19812968  0.35187481     0.27100
C1913       C  0.89391689  0.20010584  0.38049941     0.27100
C1914       C  0.87018712  0.09747592  0.35488761     0.27100
C1915       C  0.89524195  0.09952040  0.38478170     0.27100
C1916       C  0.84150410  0.16544659  0.33341545     0.35700
C1917       C  0.84312591  0.12636191  0.33427850     0.35700
C1918       C  0.90978763  0.17096635  0.41042979     0.35700
C1919       C  0.90934017  0.13192226  0.41251126     0.35700
C1920       C  0.87702721  0.22099054  0.35109586    -0.21700
C1921       C  0.89420462  0.22216449  0.36896919    -0.21700
C1922       C  0.88216979  0.07564120  0.35553073    -0.21700
C1923       C  0.89801871  0.07693438  0.37440114    -0.21700
C1924       C  0.82243650  0.15693764  0.31951343    -0.22800
C1925       C  0.82348581  0.13215497  0.32003855    -0.22800
C1926       C  0.91943301  0.16503706  0.43258201    -0.22800
C1927       C  0.91926657  0.14027432  0.43383985    -0.22800
C1928       C  0.84753252  0.19007414  0.33696032    -0.18200
C1929       C  0.90777344  0.19464556  0.40127931    -0.18200
C1930       C  0.90736887  0.10741697  0.40564931    -0.18100
C1931       C  0.85114484  0.10269060  0.33902562    -0.18100
H1932       H  0.87251554  0.23541754  0.33895727     0.14800
H1933       H  0.90538634  0.23767813  0.37321125     0.14800
H1934       H  0.87957480  0.06024914  0.34377797     0.14800
H1935       H  0.91005847  0.06273076  0.37996731     0.14800
H1936       H  0.80927443  0.16747889  0.30984952     0.13000
H1937       H  0.81128652  0.11982681  0.31090767     0.13000
H1938       H  0.92618045  0.17726455  0.44626442     0.13000
H1939       H  0.92593719  0.12962164  0.44860205     0.13000
H1940       H  0.87187453  0.16863342  0.37560369     0.26300
H1941       H  0.87128048  0.12857452  0.37768765     0.26300
O1942       O  0.01440574  0.28776722  0.79699111    -0.78400
C1943       C  0.95541561  0.23105356  0.79419431     0.82700
O1944       O  0.03776056  0.22088921  0.74781578    -0.79500
O1945       O  0.95605496  0.23046736  0.71853011    -0.80900
O1946       O  0.96475283  0.31088525  0.72651904    -0.80700
O1947       O  0.01148541  0.31628219  0.76943558    -0.79400
Zn1948     Zn  0.00133815  0.25790434  0.78178003     1.55700
O1949       O  0.93776815  0.28186168  0.73252684    -0.80800
Cd1950     Cd  0.99612868  0.29737029  0.74119295     1.59700
Cd1951     Cd  0.01470981  0.24258780  0.72696105     1.59600
O1952       O  0.02005642  0.30165661  0.71408425    -0.80800
O1953       O  0.99343890  0.26271074  0.74873972    -1.91300
Cd1954     Cd  0.95893932  0.25447110  0.74538001     1.59900
O1955       O  0.03529351  0.26557279  0.70502966    -0.80700
O1956       O  0.94554647  0.23641998  0.77432672    -0.79400
C1957       C  0.04083006  0.22191577  0.77052337     0.83200
C1958       C  0.01915047  0.30893677  0.78964687     0.82800
O1959       O  0.97580770  0.23989243  0.80023231    -0.78300
C1960       C  0.94374696  0.30190497  0.72331914     0.83600
O1961       O  0.02847549  0.23570630  0.78371108    -0.78400
C1962       C  0.03413947  0.28836445  0.70206552     0.83800
C1963       C  0.96963180  0.21930895  0.70411219     0.84100
O1964       O  0.99262952  0.22110378  0.70468121    -0.80800
C1965       C  0.03785755  0.21136733  0.00807815     0.80400
N1966       N  0.04855571  0.23085039  0.01892052    -0.77900
C1967       C  0.03864884  0.24093014  0.03895085     0.82800
N1968       N  0.01786604  0.23154408  0.04775969    -0.77900
C1969       C  0.00692126  0.21238372  0.03715755     0.82900
N1970       N  0.01709624  0.20244282  0.01743474    -0.79600
N1971       N  0.11166631  0.32756809  0.12255677    -0.36500
N1972       N  0.08819804  0.36552844  0.09506465    -0.57000
N1973       N  0.11002592  0.40106803  0.12717966    -0.36500
N1974       N  0.13586319  0.36318629  0.15251979    -0.57000
C1975       C  0.10345248  0.31501132  0.10328594     0.27100
C1976       C  0.12828115  0.31369520  0.13367362     0.27100
C1977       C  0.10148093  0.41519535  0.10948578     0.27100
C1978       C  0.12705311  0.41404513  0.13900057     0.27100
C1979       C  0.07675152  0.34620328  0.08539774     0.35700
C1980       C  0.07571412  0.38516483  0.08819262     0.35700
C1981       C  0.14269136  0.34322100  0.16442727     0.35700
C1982       C  0.14222405  0.38224662  0.16638124     0.35700
C1983       C  0.11487102  0.29286504  0.10225572    -0.21700
C1984       C  0.13048614  0.29202804  0.12139740    -0.21700
C1985       C  0.11303462  0.43740996  0.11017591    -0.21700
C1986       C  0.12914849  0.43670565  0.12881396    -0.21700
C1987       C  0.05702404  0.35361750  0.07203336    -0.22800
C1988       C  0.05640755  0.37836465  0.07375965    -0.22800
C1989       C  0.15361665  0.34964635  0.18595693    -0.22800
C1990       C  0.15343265  0.37442170  0.18712964    -0.22800
C1991       C  0.08472173  0.32213260  0.08751331    -0.18200
C1992       C  0.14069679  0.31945772  0.15525145    -0.18200
C1993       C  0.13993692  0.40655815  0.15947249    -0.18100
C1994       C  0.08259423  0.40915855  0.09353347    -0.18100
H1995       H  0.11207732  0.27864525  0.08915539     0.14800
H1996       H  0.14204880  0.27705226  0.12583768     0.14800
H1997       H  0.11005076  0.45265095  0.09856040     0.14800
H1998       H  0.14093604  0.45136170  0.13429418     0.14800
H1999       H  0.04456865  0.34240584  0.06188553     0.13000
H2000       H  0.04340759  0.39002366  0.06522187     0.13000
H2001       H  0.16130182  0.33776492  0.19921601     0.13000
H2002       H  0.16099800  0.38542474  0.20140996     0.13000
H2003       H  0.10515410  0.34396861  0.12860868     0.26300
H2004       H  0.10357239  0.38414494  0.13180413     0.26300
C2005       C  0.03037324  0.04481187  0.22969859     0.80400
N2006       N  0.04102677  0.02518657  0.21999230    -0.77900
C2007       C  0.03314697  0.01547769  0.19902994     0.82800
N2008       N  0.01407591  0.02572782  0.18753892    -0.77900
C2009       C  0.00313405  0.04567530  0.19679350     0.82900
N2010       N  0.01164317  0.05507380  0.21784777    -0.79600
C2011       C  0.19084939  0.23762875  0.19624143     0.80400
N2012       N  0.21029162  0.22776693  0.18511389    -0.77900
C2013       C  0.22008712  0.20683288  0.19309652     0.82800
N2014       N  0.20974909  0.19566640  0.21217013    -0.77900
C2015       C  0.19007875  0.20497080  0.22329046     0.82900
N2016       N  0.18091136  0.22600010  0.21516162    -0.79600
N2017       N  0.11480455  0.12260587  0.31121634    -0.36500
N2018       N  0.09327374  0.09386561  0.34935250    -0.57000
N2019       N  0.12565585  0.11715938  0.38305957    -0.36500
N2020       N  0.14942332  0.14350569  0.34508782    -0.57000
C2021       C  0.10159113  0.10641997  0.29841765     0.27100
C2022       C  0.13123728  0.13240222  0.29617588     0.27100
C2023       C  0.11656631  0.09937446  0.39669901     0.27100
C2024       C  0.14546787  0.12561276  0.39444054     0.27100
C2025       C  0.07730514  0.08892256  0.33164525     0.35700
C2026       C  0.08303388  0.08643715  0.36998125     0.35700
C2027       C  0.15408660  0.15731241  0.32584151     0.35700
C2028       C  0.15878169  0.15527311  0.36426771     0.35700
C2029       C  0.10968025  0.10604570  0.27490689    -0.21700
C2030       C  0.12827403  0.12252215  0.27347733    -0.21700
C2031       C  0.13086503  0.09636011  0.41691896    -0.21700
C2032       C  0.14920688  0.11295285  0.41545296    -0.21700
C2033       C  0.05694450  0.07785591  0.34102458    -0.22800
C2034       C  0.06058666  0.07630069  0.36538011    -0.22800
C2035       C  0.16697604  0.17771698  0.33271879    -0.22800
C2036       C  0.16981360  0.17649744  0.35718323    -0.22800
C2037       C  0.08159717  0.09294629  0.30701816    -0.18200
C2038       C  0.14788015  0.15101168  0.30205994    -0.18200
C2039       C  0.15842194  0.14632159  0.38784850    -0.18100
C2040       C  0.09432258  0.08774839  0.39267165    -0.18100
H2041       H  0.10270817  0.09523347  0.26019691     0.14800
H2042       H  0.13838358  0.12683101  0.25750238     0.14800
H2043       H  0.12798537  0.08402327  0.43157695     0.14800
H2044       H  0.16322926  0.11595071  0.42872803     0.14800
H2045       H  0.04117760  0.07147795  0.33132503     0.13000
H2046       H  0.04826315  0.06845213  0.37818403     0.13000
H2047       H  0.17360392  0.19196520  0.32130809     0.13000
H2048       H  0.17915206  0.18954219  0.36840798     0.13000
H2049       H  0.11178472  0.12774830  0.32884519     0.26300
H2050       H  0.11749315  0.12474709  0.36817234     0.26300
C2051       C  0.21813100  0.04901486  0.03824275     0.80400
N2052       N  0.20825540  0.02908236  0.04848525    -0.77900
C2053       C  0.18828103  0.01817421  0.03901516     0.82800
N2054       N  0.17807112  0.02755712  0.01899352    -0.77900
C2055       C  0.18775603  0.04723997  0.00821782     0.82900
N2056       N  0.20757821  0.05799252  0.01816008    -0.79600
N2057       N  0.30734494  0.12553940  0.11763228    -0.36500
N2058       N  0.34391151  0.14815242  0.14845433    -0.57000
N2059       N  0.38052380  0.12025067  0.12374917    -0.36500
N2060       N  0.34407873  0.09521611  0.09527743    -0.57000
C2061       C  0.29333151  0.13719420  0.13375704     0.27100
C2062       C  0.29330868  0.10881666  0.10644282     0.27100
C2063       C  0.39334420  0.12924894  0.14242916     0.27100
C2064       C  0.39357498  0.10212381  0.11427068     0.27100
C2065       C  0.32502770  0.16250901  0.15363648     0.35700
C2066       C  0.36387845  0.15948002  0.15694164     0.35700
C2067       C  0.32490397  0.08885722  0.08152207     0.35700
C2068       C  0.36402837  0.08719097  0.08391023     0.35700
C2069       C  0.27004825  0.12795572  0.13259566    -0.21700
C2070       C  0.27004016  0.11006309  0.11543799    -0.21700
C2071       C  0.41471847  0.11663515  0.14493273    -0.21700
C2072       C  0.41487922  0.09950751  0.12712884    -0.21700
C2073       C  0.33296775  0.18287854  0.16590320    -0.22800
C2074       C  0.35765309  0.18101677  0.16788320    -0.22800
C2075       C  0.33267678  0.07626637  0.06147624    -0.22800
C2076       C  0.35750537  0.07531233  0.06293690    -0.22800
C2077       C  0.30062086  0.15667535  0.14873773    -0.18200
C2078       C  0.30047311  0.09328179  0.08748588    -0.18200
C2079       C  0.38782892  0.08926887  0.09311497    -0.18100
C2080       C  0.38745500  0.15001518  0.15576014    -0.18100
H2081       H  0.25460114  0.13356353  0.14298840     0.14800
H2082       H  0.25456479  0.09928185  0.11010260     0.14800
H2083       H  0.42897825  0.11982465  0.15791090     0.14800
H2084       H  0.42928166  0.08686831  0.12374011     0.14800
H2085       H  0.32209561  0.19747897  0.17277731     0.13000
H2086       H  0.36960582  0.19387574  0.17659428     0.13000
H2087       H  0.32160429  0.06849471  0.04735806     0.13000
H2088       H  0.36935121  0.06655956  0.05025723     0.13000
H2089       H  0.32510817  0.12970007  0.11357386     0.26300
H2090       H  0.36485640  0.12741248  0.11658704     0.26300
N2091       N  0.10994565  0.12904115  0.92214583    -0.36500
N2092       N  0.13470473  0.10005483  0.88722125    -0.57000
N2093       N  0.11276002  0.12797110  0.84853496    -0.36500
N2094       N  0.09031111  0.15922120  0.88370116    -0.57000
C2095       C  0.12544763  0.11690450  0.93645537     0.27100
C2096       C  0.10224968  0.14843174  0.93465199     0.27100
C2097       C  0.13063474  0.11654909  0.83674901     0.27100
C2098       C  0.10589864  0.14663634  0.83471679     0.27100
C2099       C  0.13906945  0.08653882  0.90678021     0.35700
C2100       C  0.14122033  0.08669840  0.86807741     0.35700
C2101       C  0.07810832  0.16834171  0.90258926     0.35700
C2102       C  0.07912187  0.16722598  0.86369582     0.35700
C2103       C  0.12746496  0.12865176  0.95837175    -0.21700
C2104       C  0.11276987  0.14849314  0.95726751    -0.21700
C2105       C  0.13498808  0.12795862  0.81512448    -0.21700
C2106       C  0.11925331  0.14688150  0.81378616    -0.21700
C2107       C  0.14841650  0.06442531  0.90004898    -0.22800
C2108       C  0.14977566  0.06452081  0.87546013    -0.22800
C2109       C  0.05923318  0.18248822  0.89456278    -0.22800
C2110       C  0.05986415  0.18176549  0.86988816    -0.22800
C2111       C  0.13702080  0.09498247  0.93059327    -0.18200
C2112       C  0.08466776  0.16510055  0.92691115    -0.18200
C2113       C  0.08720649  0.16285754  0.84003410    -0.18100
C2114       C  0.14243299  0.09551643  0.84445523    -0.18100
H2115       H  0.13822229  0.12335518  0.97366660     0.14800
H2116       H  0.11000959  0.16142997  0.97157326     0.14800
H2117       H  0.14807156  0.12311344  0.80161306     0.14800
H2118       H  0.11785528  0.15944250  0.79910276     0.14800
H2119       H  0.15424050  0.05002628  0.91166267     0.13000
H2120       H  0.15698427  0.05026869  0.86432424     0.13000
H2121       H  0.04650506  0.19246481  0.90535527     0.13000
H2122       H  0.04772722  0.19106359  0.85789158     0.13000
H2123       H  0.10374795  0.12367776  0.90535434     0.26300
H2124       H  0.10483754  0.12261745  0.86448682     0.26300
N2125       N  0.11512604  0.93055794  0.12387998    -0.36500
N2126       N  0.14219980  0.89536031  0.09619040    -0.57000
N2127       N  0.12121524  0.85718076  0.12522699    -0.36500
N2128       N  0.09182513  0.89210633  0.15070808    -0.57000
C2129       C  0.12359112  0.94433673  0.10577511     0.27100
C2130       C  0.09648270  0.94250870  0.13399250     0.27100
C2131       C  0.13132061  0.84432086  0.10734308     0.27100
C2132       C  0.10513969  0.84249433  0.13600179     0.27100
C2133       C  0.15312600  0.91561676  0.08834642     0.35700
C2134       C  0.15593391  0.87673465  0.08881790     0.35700
C2135       C  0.08327641  0.91122676  0.16306429     0.35700
C2136       C  0.08687290  0.87232924  0.16383343     0.35700
C2137       C  0.11029357  0.96534579  0.10445985    -0.21700
C2138       C  0.09316831  0.96417267  0.12219005    -0.21700
C2139       C  0.12173875  0.82117609  0.10687820    -0.21700
C2140       C  0.10526263  0.81999786  0.12502257    -0.21700
C2141       C  0.17378138  0.90980806  0.07566391    -0.22800
C2142       C  0.17551697  0.88510685  0.07591011    -0.22800
C2143       C  0.07265992  0.90354362  0.18415223    -0.22800
C2144       C  0.07484652  0.87883939  0.18458187    -0.22800
C2145       C  0.14384761  0.93910764  0.09127270    -0.18200
C2146       C  0.08332125  0.93519126  0.15450041    -0.18200
C2147       C  0.09113177  0.84841638  0.15615938    -0.18100
C2148       C  0.15017120  0.85225634  0.09248079    -0.18100
H2149       H  0.11278178  0.98007774  0.09209205     0.14800
H2150       H  0.07989602  0.97785637  0.12608381     0.14800
H2151       H  0.12635362  0.80652018  0.09489481     0.14800
H2152       H  0.09470049  0.80425987  0.12966274     0.14800
H2153       H  0.18616357  0.92205377  0.06694671     0.13000
H2154       H  0.18946787  0.87451779  0.06744797     0.13000
H2155       H  0.06381312  0.91452107  0.19754081     0.13000
H2156       H  0.06803673  0.86699042  0.19835230     0.13000
H2157       H  0.12268117  0.91467307  0.12996948     0.26300
H2158       H  0.12608041  0.87444345  0.13067500     0.26300
N2159       N  0.92209742  0.13135587  0.11629772    -0.36500
N2160       N  0.88588284  0.16352950  0.09564136    -0.57000
N2161       N  0.84901409  0.13889895  0.12278375    -0.36500
N2162       N  0.88521269  0.10889218  0.14552364    -0.57000
C2163       C  0.93606680  0.14851237  0.10607989     0.27100
C2164       C  0.93581781  0.11995206  0.13284962     0.27100
C2165       C  0.83644144  0.15784011  0.11453738     0.27100
C2166       C  0.83606819  0.12935356  0.14076174     0.27100
C2167       C  0.90473709  0.16863685  0.08127212     0.35700
C2168       C  0.86601924  0.17233608  0.08470215     0.35700
C2169       C  0.90386204  0.09442011  0.15112577     0.35700
C2170       C  0.86508893  0.09802274  0.15381510     0.35700
C2171       C  0.95896805  0.14794863  0.11619336    -0.21700
C2172       C  0.95886800  0.12981576  0.13291119    -0.21700
C2173       C  0.81524370  0.16039645  0.12736624    -0.21700
C2174       C  0.81498773  0.14234003  0.14397781    -0.21700
C2175       C  0.89683866  0.18103203  0.06122872    -0.22800
C2176       C  0.87227231  0.18342394  0.06344781    -0.22800
C2177       C  0.89558599  0.07438581  0.16339757    -0.22800
C2178       C  0.87094989  0.07662312  0.16500419    -0.22800
C2179       C  0.92911436  0.16365606  0.08688629    -0.18200
C2180       C  0.92835929  0.10024822  0.14717136    -0.18200
C2181       C  0.84179626  0.10810026  0.15297875    -0.18100
C2182       C  0.84249952  0.17134998  0.09426207    -0.18100
H2183       H  0.97428886  0.15920953  0.11172178     0.14800
H2184       H  0.97408965  0.12450892  0.14383145     0.14800
H2185       H  0.80117193  0.17354886  0.12465516     0.14800
H2186       H  0.80064904  0.13887294  0.15662421     0.14800
H2187       H  0.90764425  0.18775948  0.04659043     0.13000
H2188       H  0.86039859  0.19234752  0.05092071     0.13000
H2189       H  0.90619747  0.05988863  0.17076934     0.13000
H2190       H  0.85881406  0.06421080  0.17383470     0.13000
H2191       H  0.90461138  0.12678739  0.11119498     0.26300
H2192       H  0.86449536  0.13169300  0.11530646     0.26300
C2193       C  0.25377386  0.04718425  0.06585263    -0.20200
C2194       C  0.24010954  0.06066013  0.04933327    -0.06700
C2195       C  0.24746567  0.08482531  0.04472546     0.14100
C2196       C  0.26772025  0.09453812  0.05677670    -0.20200
C2197       C  0.28091339  0.08104011  0.07334954    -0.06700
C2198       C  0.27387616  0.05708261  0.07792997     0.14100
C2199       C  0.28715109  0.04220054  0.09614495    -0.23600
H2200       H  0.24860029  0.02875775  0.06964076     0.15400
H2201       H  0.27307656  0.11306717  0.05367915     0.15400
C2202       C  0.23393349  0.10101265  0.02783655    -0.23500
H2203       H  0.27907861  0.02394607  0.09793892     0.05700
H2204       H  0.28649654  0.05123163  0.11394046     0.08900
H2205       H  0.30625672  0.04008086  0.09069390     0.08900
H2206       H  0.21483157  0.10256320  0.03352521     0.08900
H2207       H  0.23494808  0.09373812  0.00933646     0.08900
H2208       H  0.24171365  0.11949308  0.02750028     0.05600
C2209       C  0.18039856  0.99540949  0.07651563    -0.20200
C2210       C  0.17694458  0.99728874  0.05158364    -0.06700
C2211       C  0.16284887  0.97933700  0.03965586     0.14100
C2212       C  0.15230134  0.96065042  0.05303391    -0.20200
C2213       C  0.15547369  0.95925913  0.07791533    -0.06700
C2214       C  0.16986209  0.97671343  0.08975942     0.14100
C2215       C  0.17439684  0.97543300  0.11636706    -0.23600
H2216       H  0.19117735  0.00886528  0.08586974     0.15400
H2217       H  0.14145365  0.94697069  0.04406789     0.15400
C2218       C  0.15929964  0.97911519  0.01285144    -0.23500
H2219       H  0.18666291  0.99007167  0.12266794     0.05700
H2220       H  0.18283882  0.95793160  0.12082527     0.08900
H2221       H  0.15714674  0.97716552  0.12622070     0.08900
H2222       H  0.17709399  0.97937745  0.00378475     0.08900
H2223       H  0.14849161  0.99488122  0.00727740     0.08900
H2224       H  0.14942900  0.96273276  0.00665320     0.05600
C2225       C  0.15006249  0.05709679  0.98598654    -0.20200
C2226       C  0.17546614  0.05794890  0.98700720    -0.06700
C2227       C  0.18808149  0.06961709  0.96821993     0.14100
C2228       C  0.17503126  0.08182936  0.95046293    -0.20200
C2229       C  0.14973989  0.08155521  0.94997642    -0.06700
C2230       C  0.13710777  0.06847591  0.96756915     0.14100
C2231       C  0.11000963  0.06626236  0.96672186    -0.23600
H2232       H  0.14019755  0.04779992  0.99990886     0.15400
H2233       H  0.18470262  0.09125907  0.93647421     0.15400
C2234       C  0.21508651  0.06860477  0.96526577    -0.23500
H2235       H  0.10303082  0.05483966  0.98144582     0.05700
H2236       H  0.10435777  0.05793300  0.94942659     0.08900
H2237       H  0.10166878  0.08429455  0.96843962     0.08900
H2238       H  0.22406874  0.05626698  0.97789992     0.08900
H2239       H  0.22289754  0.08696043  0.96732113     0.08900
H2240       H  0.21932976  0.06180928  0.94700914     0.05600
C2241       C  0.19214070  0.17353920  0.25509595    -0.20200
C2242       C  0.17879036  0.19191388  0.24390049    -0.06700
C2243       C  0.15503760  0.19666620  0.25237470     0.14100
C2244       C  0.14563678  0.18302652  0.27133529    -0.20200
C2245       C  0.15906903  0.16485338  0.28219374    -0.06700
C2246       C  0.18257809  0.16002412  0.27405712     0.14100
C2247       C  0.19740873  0.14035737  0.28519007    -0.23600
H2248       H  0.21024862  0.16961860  0.24903537     0.15400
H2249       H  0.12755452  0.18648065  0.27779708     0.15400
C2250       C  0.13894626  0.21551395  0.24150141    -0.23500
H2251       H  0.21530837  0.13863380  0.27649294     0.05700
H2252       H  0.18776775  0.12285058  0.28331356     0.08900
H2253       H  0.20043328  0.14433058  0.30449194     0.08900
H2254       H  0.13615625  0.21157462  0.22216387     0.08900
H2255       H  0.14704022  0.23368493  0.24407263     0.08900
H2256       H  0.12086317  0.21586245  0.24999980     0.05600
C2257       C  0.25432241  0.17783996  0.19424111    -0.20200
C2258       C  0.24177704  0.19572813  0.18144656    -0.06700
C2259       C  0.24987176  0.20152348  0.15796933     0.14100
C2260       C  0.26952351  0.18897186  0.14807651    -0.20200
C2261       C  0.28139046  0.17088909  0.16083955    -0.06700
C2262       C  0.27383327  0.16537438  0.18422725     0.14100
C2263       C  0.28599290  0.14582903  0.19837869    -0.23600
H2264       H  0.24871471  0.17324932  0.21221781     0.15400
H2265       H  0.27546844  0.19295000  0.13004229     0.15400
C2266       C  0.23778024  0.22028308  0.14274288    -0.23500
H2267       H  0.27768343  0.14351615  0.21629511     0.05700
H2268       H  0.30535310  0.15038813  0.20104289     0.08900
H2269       H  0.28447138  0.12842057  0.18856412     0.08900
H2270       H  0.23959827  0.23823794  0.15140247     0.08900
H2271       H  0.21844083  0.21559796  0.14012012     0.08900
H2272       H  0.24609906  0.22160673  0.12472255     0.05600
C2273       C  0.03897769  0.08152684  0.25434236    -0.20200
C2274       C  0.04082053  0.05638075  0.25159117    -0.06700
C2275       C  0.05354337  0.04315246  0.26925139     0.14100
C2276       C  0.06605394  0.05557354  0.28746831    -0.20200
C2277       C  0.06559556  0.08074388  0.28907925    -0.06700
C2278       C  0.05096866  0.09381381  0.27303895     0.14100
C2279       C  0.04784940  0.12064579  0.27575691    -0.23600
H2280       H  0.02869859  0.09177345  0.24141625     0.15400
H2281       H  0.07672275  0.04561555  0.30032414     0.15400
C2282       C  0.05358828  0.01598588  0.26964326    -0.23500
H2283       H  0.03503933  0.12785534  0.26226859     0.05700
H2284       H  0.06534031  0.13011464  0.27344368     0.08900
H2285       H  0.04064926  0.12478700  0.29384788     0.08900
H2286       H  0.06412879  0.00868340  0.25447531     0.08900
H2287       H  0.03476631  0.00904592  0.26879253     0.08900
H2288       H  0.06195756  0.00901460  0.28631691     0.05600
C2289       C  0.95486937  0.06426392  0.15039515    -0.20200
C2290       C  0.94705837  0.08614388  0.16022428    -0.06700
C2291       C  0.95670684  0.09398702  0.18237998     0.14100
C2292       C  0.97455085  0.08024257  0.19367204    -0.20200
C2293       C  0.98310566  0.05844032  0.18375776    -0.06700
C2294       C  0.97254262  0.05017431  0.16183741     0.14100
C2295       C  0.97933911  0.02660693  0.15020296    -0.23600
H2296       H  0.94698255  0.05818090  0.13358696     0.15400
H2297       H  0.98187500  0.08696248  0.21047721     0.15400
C2298       C  0.94865176  0.11684293  0.19463333    -0.23500
H2299       H  0.96849157  0.02288602  0.13379100     0.05700
H2300       H  0.97604885  0.01155436  0.16279989     0.08900
H2301       H  0.99857277  0.02706263  0.14477495     0.08900
H2302       H  0.94143258  0.11249461  0.21263148     0.08900
H2303       H  0.93436601  0.12644356  0.18463002     0.08900
H2304       H  0.96430293  0.12926775  0.19676063     0.05600
C2305       C  0.03263737  0.97566396  0.17782803    -0.20200
C2306       C  0.04603748  0.99447605  0.18850920    -0.06700
C2307       C  0.07160423  0.99298101  0.18875775     0.14100
C2308       C  0.08286926  0.97279739  0.17862310    -0.20200
C2309       C  0.06954357  0.95420178  0.16764683    -0.06700
C2310       C  0.04402069  0.95561208  0.16731199     0.14100
C2311       C  0.02825430  0.93676403  0.15546341    -0.23600
H2312       H  0.01310477  0.97668376  0.17750917     0.15400
H2313       H  0.10240755  0.97183542  0.17849527     0.15400
C2314       C  0.08738677  0.01314949  0.19829774    -0.23500
H2315       H  0.01705479  0.94529078  0.14136585     0.05700
H2316       H  0.01615984  0.92860304  0.16903159     0.08900
H2317       H  0.03864184  0.92212351  0.14686587     0.08900
H2318       H  0.08528091  0.01500557  0.21794075     0.08900
H2319       H  0.08256762  0.03031516  0.18942712     0.08900
H2320       H  0.10680957  0.00978641  0.19486859     0.05600
C2321       C  0.17873508  0.29896077  0.16742847    -0.20200
C2322       C  0.15342933  0.29951626  0.16786806    -0.06700
C2323       C  0.14073787  0.28028154  0.17862652     0.14100
C2324       C  0.15360821  0.26063831  0.18766568    -0.20200
C2325       C  0.17897408  0.25972890  0.18691609    -0.06700
C2326       C  0.19172095  0.27968378  0.17728708     0.14100
C2327       C  0.21882303  0.28205816  0.17783995    -0.23600
H2328       H  0.18847488  0.31382746  0.15937762     0.15400
H2329       H  0.14354987  0.24568949  0.19511250     0.15400
C2330       C  0.11362370  0.27979535  0.18080359    -0.23500
H2331       H  0.22390155  0.29947339  0.18643643     0.05700
H2332       H  0.22586896  0.28185686  0.15924905     0.08900
H2333       H  0.22785839  0.26787612  0.18830801     0.08900
H2334       H  0.10497589  0.29640142  0.17411627     0.08900
H2335       H  0.10861073  0.27783762  0.19994016     0.08900
H2336       H  0.10621024  0.26420628  0.17053801     0.05600
C2337       C  0.05913099  0.28564122  0.08731964    -0.20200
C2338       C  0.07203340  0.30255477  0.07391204    -0.06700
C2339       C  0.07452092  0.29893571  0.04892660     0.14100
C2340       C  0.06339463  0.27878283  0.03799558    -0.20200
C2341       C  0.05036489  0.26178566  0.05145734    -0.06700
C2342       C  0.04882627  0.26508414  0.07669094     0.14100
C2343       C  0.03780597  0.24649118  0.09303103    -0.23600
H2344       H  0.05788023  0.28820082  0.10655870     0.15400
H2345       H  0.06505343  0.27629670  0.01879040     0.15400
C2346       C  0.08925971  0.31550153  0.03341795    -0.23500
H2347       H  0.04091418  0.25096539  0.11223449     0.05700
H2348       H  0.04601828  0.22862312  0.08955370     0.08900
H2349       H  0.01803743  0.24548260  0.09038730     0.08900
H2350       H  0.09790610  0.33041420  0.04363654     0.08900
H2351       H  0.07749575  0.32345076  0.01943171     0.08900
H2352       H  0.10379646  0.30508565  0.02456621     0.05600
C2353       C  0.06597416  0.21255818  0.97299921    -0.20200
C2354       C  0.04894100  0.19956038  0.98655691    -0.06700
C2355       C  0.04336649  0.17543096  0.97941776     0.14100
C2356       C  0.05449700  0.16553566  0.95914383    -0.20200
C2357       C  0.07151240  0.17847173  0.94596692    -0.06700
C2358       C  0.07746598  0.20226389  0.95298848     0.14100
C2359       C  0.09632434  0.21696732  0.94023478    -0.23600
H2360       H  0.07064585  0.23086279  0.97814835     0.15400
H2361       H  0.05051065  0.14709329  0.95386767     0.15400
C2362       C  0.02668269  0.15918974  0.99334236    -0.23500
H2363       H  0.08805860  0.23372790  0.93333862     0.05700
H2364       H  0.10448026  0.20725838  0.92489330     0.08900
H2365       H  0.11102850  0.22183837  0.95298650     0.08900
H2366       H  0.00795879  0.16609863  0.99258029     0.08900
H2367       H  0.03305125  0.15789373  0.01217679     0.08900
H2368       H  0.02612763  0.14058741  0.98589871     0.05600
C2369       C  0.94968847  0.20126639  0.07332520    -0.20200
C2370       C  0.94839718  0.17600355  0.07285243    -0.06700
C2371       C  0.96512371  0.16298865  0.05888418     0.14100
C2372       C  0.98377455  0.17543608  0.04730095    -0.20200
C2373       C  0.98570013  0.20067577  0.04848564    -0.06700
C2374       C  0.96772046  0.21381244  0.06083615     0.14100
C2375       C  0.96655527  0.24092462  0.05997465    -0.23600
H2376       H  0.93634002  0.21121841  0.08342919     0.15400
H2377       H  0.99714933  0.16525589  0.03753583     0.15400
C2378       C  0.96301286  0.13607257  0.05555896    -0.23500
H2379       H  0.94995305  0.24784845  0.06863652     0.05700
H2380       H  0.96641625  0.24693925  0.04103680     0.08900
H2381       H  0.98210981  0.24914508  0.06951098     0.08900
H2382       H  0.94491773  0.13145469  0.04818090     0.08900
H2383       H  0.96562377  0.12669404  0.07281815     0.08900
H2384       H  0.97676953  0.12910520  0.04291125     0.05600
C2385       C  0.05213395  0.18143140  0.78420306    -0.20200
C2386       C  0.05770071  0.20606471  0.78325723    -0.06700
C2387       C  0.07454773  0.21598173  0.79977591     0.14100
C2388       C  0.08412240  0.20140922  0.81786613    -0.20200
C2389       C  0.07716086  0.17722565  0.81990813    -0.06700
C2390       C  0.06166981  0.16685542  0.80240185     0.14100
C2391       C  0.05430453  0.14073340  0.80358786    -0.23600
H2392       H  0.03888693  0.17399726  0.77181059     0.15400
H2393       H  0.09667127  0.20901354  0.83085485     0.15400
C2394       C  0.08211841  0.24209493  0.79857888    -0.23500
H2395       H  0.04151678  0.13576300  0.78896307     0.05700
H2396       H  0.04536899  0.13711123  0.82097204     0.08900
H2397       H  0.07041432  0.12909757  0.80185326     0.08900
H2398       H  0.06649877  0.25403863  0.80189066     0.08900
H2399       H  0.08967460  0.24595356  0.78060592     0.08900
H2400       H  0.09616017  0.24656364  0.81219207     0.05600
C2401       C  0.89850536  0.31226696  0.67278218    -0.20200
C2402       C  0.90389695  0.33613870  0.66697997    -0.06700
C2403       C  0.92013508  0.34951118  0.68138303     0.14100
C2404       C  0.93161566  0.33829995  0.70071526    -0.20200
C2405       C  0.92710341  0.31399596  0.70622533    -0.06700
C2406       C  0.90975612  0.30095599  0.69225880     0.14100
C2407       C  0.90339278  0.27495719  0.69696762    -0.23600
H2408       H  0.88542323  0.30247537  0.66191694     0.15400
H2409       H  0.94470362  0.34846422  0.71121178     0.15400
C2410       C  0.92551115  0.37558209  0.67611894    -0.23500
H2411       H  0.88948965  0.26801678  0.68424884     0.05700
H2412       H  0.89595642  0.27312628  0.71530502     0.08900
H2413       H  0.91960707  0.26352393  0.69493166     0.08900
H2414       H  0.90870446  0.38628625  0.67742301     0.08900
H2415       H  0.93295436  0.37723997  0.65776134     0.08900
H2416       H  0.93886670  0.38335788  0.68893835     0.05600
C2417       C  0.94189168  0.34246776  0.50869816    -0.20200
C2418       C  0.93781830  0.31765313  0.50473794    -0.06700
C2419       C  0.92208807  0.30524220  0.52056108     0.14100
C2420       C  0.90990378  0.31815520  0.53853897    -0.20200
C2421       C  0.91341416  0.34297705  0.54181436    -0.06700
C2422       C  0.93008505  0.35517900  0.52709139     0.14100
C2423       C  0.93569670  0.38151120  0.53097483    -0.23600
H2424       H  0.95419040  0.35215498  0.49713809     0.15400
H2425       H  0.89745424  0.30881560  0.55024069     0.15400
C2426       C  0.91866704  0.27830389  0.51956602    -0.23500
H2427       H  0.94973593  0.38805363  0.51840735     0.05700
H2428       H  0.94243882  0.38442582  0.54953894     0.08900
H2429       H  0.91928013  0.39246204  0.52815171     0.08900
H2430       H  0.93646353  0.26927857  0.52045069     0.08900
H2431       H  0.90907643  0.27293160  0.50297002     0.08900
H2432       H  0.90766769  0.27166899  0.53478064     0.05600
C2433       C  0.95439299  0.23788769  0.42956404    -0.20200
C2434       C  0.93941860  0.25534674  0.44017122    -0.06700
C2435       C  0.91406822  0.25301895  0.43703719     0.14100
C2436       C  0.90451897  0.23277062  0.42494363    -0.20200
C2437       C  0.91944251  0.21517206  0.41477588    -0.06700
C2438       C  0.94477793  0.21809852  0.41663690     0.14100
C2439       C  0.96172769  0.20100112  0.40420870    -0.23600
H2440       H  0.97380183  0.23982527  0.43122945     0.15400
H2441       H  0.88513712  0.23087267  0.42287917     0.15400
C2442       C  0.89687464  0.27243025  0.44488212    -0.23500
H2443       H  0.98086691  0.20663638  0.40653373     0.05700
H2444       H  0.95764306  0.20052323  0.38471619     0.08900
H2445       H  0.95985633  0.18260943  0.41156877     0.08900
H2446       H  0.90247701  0.28998317  0.43720061     0.08900
H2447       H  0.89644769  0.27375119  0.46462443     0.08900
H2448       H  0.87812497  0.26863320  0.43876262     0.05600
C2449       C  0.01781360  0.33325413  0.46085618    -0.20200
C2450       C  0.00468739  0.31701534  0.44608411    -0.06700
C2451       C  0.01268241  0.31351183  0.42208622     0.14100
C2452       C  0.03257622  0.32674010  0.41362887    -0.20200
C2453       C  0.04503054  0.34324766  0.42822521    -0.06700
C2454       C  0.03783451  0.34631330  0.45223937     0.14100
C2455       C  0.05098439  0.36369238  0.46857497    -0.23600
H2456       H  0.01226837  0.33601390  0.47925672     0.15400
H2457       H  0.03836220  0.32448376  0.39521983     0.15400
C2458       C  0.00027565  0.29650385  0.40474688    -0.23500
H2459       H  0.04294735  0.36414239  0.48676978     0.05700
H2460       H  0.05016305  0.38212569  0.46103871     0.08900
H2461       H  0.07014904  0.35827244  0.47037426     0.08900
H2462       H  0.98110781  0.30172237  0.40242099     0.08900
H2463       H  0.00152394  0.27774541  0.41136953     0.08900
H2464       H  0.00874912  0.29681490  0.38674927     0.05600
C2465       C  0.93261816  0.52911246  0.29192477    -0.20200
C2466       C  0.94286533  0.51141630  0.30671177    -0.06700
C2467       C  0.93976139  0.51340725  0.33189199     0.14100
C2468       C  0.92756673  0.53332009  0.34146752    -0.20200
C2469       C  0.91755544  0.55106735  0.32677846    -0.06700
C2470       C  0.91983820  0.54878257  0.30161473     0.14100
C2471       C  0.90805445  0.56644265  0.28492438    -0.23600
H2472       H  0.93455433  0.52750845  0.27266401     0.15400
H2473       H  0.92523068  0.53480851  0.36070006     0.15400
C2474       C  0.94789631  0.49403556  0.34890764    -0.23500
H2475       H  0.91068513  0.56131082  0.26584792     0.05700
H2476       H  0.91586902  0.58468715  0.28753022     0.08900
H2477       H  0.88836217  0.56702569  0.28842108     0.08900
H2478       H  0.96784238  0.49322730  0.34955918     0.08900
H2479       H  0.94036725  0.47633334  0.34314036     0.08900
H2480       H  0.94166637  0.49751786  0.36749400     0.05600
C2481       C  0.93603436  0.46280175  0.22690024    -0.20200
C2482       C  0.95050667  0.44930435  0.24266512    -0.06700
C2483       C  0.95437344  0.42452975  0.23718913     0.14100
C2484       C  0.94326823  0.41416821  0.21687276    -0.20200
C2485       C  0.92827648  0.42752474  0.20177834    -0.06700
C2486       C  0.92483688  0.45226938  0.20667287     0.14100
C2487       C  0.90888664  0.46790427  0.19143377    -0.23600
H2488       H  0.93299509  0.48173323  0.23057894     0.15400
H2489       H  0.94565818  0.39515683  0.21305819     0.15400
C2490       C  0.96918687  0.40829566  0.25295946    -0.23500
H2491       H  0.89421859  0.47548544  0.20261598     0.05700
H2492       H  0.90039849  0.45801274  0.17626147     0.08900
H2493       H  0.91973812  0.48294711  0.18397962     0.08900
H2494       H  0.96174421  0.40827625  0.27139481     0.08900
H2495       H  0.98829048  0.41439705  0.25317188     0.08900
H2496       H  0.96903046  0.38936074  0.24640201     0.05600
C2497       C  0.01067686  0.42619471  0.30989954    -0.20200
C2498       C  0.00808029  0.45136922  0.31103689    -0.06700
C2499       C  0.02463367  0.46494602  0.32528809     0.14100
C2500       C  0.04251114  0.45292070  0.33855857    -0.20200
C2501       C  0.04458533  0.42776980  0.33773925    -0.06700
C2502       C  0.02874434  0.41430385  0.32291532     0.14100
C2503       C  0.03118862  0.38738527  0.32049223    -0.23600
H2504       H  0.99828646  0.41563169  0.29900217     0.15400
H2505       H  0.05511188  0.46317896  0.34955150     0.15400
C2506       C  0.02438931  0.49209862  0.32589295    -0.23500
H2507       H  0.01779726  0.37969036  0.30765852     0.05700
H2508       H  0.02832037  0.37869557  0.33810174     0.08900
H2509       H  0.04951279  0.38294301  0.31388772     0.08900
H2510       H  0.00778579  0.49868584  0.33466324     0.08900
H2511       H  0.02544615  0.49919309  0.30736828     0.08900
H2512       H  0.03994421  0.49958288  0.33618695     0.05600
C2513       C  0.79138764  0.42702676  0.50757966    -0.20200
C2514       C  0.79770592  0.45107153  0.50257184    -0.06700
C2515       C  0.81335578  0.46346634  0.51875750     0.14100
C2516       C  0.82413916  0.45076409  0.53765862    -0.20200
C2517       C  0.81870017  0.42645059  0.54173269    -0.06700
C2518       C  0.80122941  0.41477956  0.52716342     0.14100
C2519       C  0.79287547  0.38928679  0.53150665    -0.23600
H2520       H  0.77890330  0.41740058  0.49591393     0.15400
H2521       H  0.83697175  0.45983226  0.54939796     0.15400
C2522       C  0.81806395  0.49017340  0.51713445    -0.23500
H2523       H  0.77300451  0.38903216  0.53396703     0.05700
H2524       H  0.80112230  0.38123861  0.54768683     0.08900
H2525       H  0.79744626  0.37784232  0.51579849     0.08900
H2526       H  0.80067298  0.49998487  0.51663422     0.08900
H2527       H  0.82872594  0.49440301  0.50102219     0.08900
H2528       H  0.82851094  0.49701064  0.53282254     0.05600
C2529       C  0.79074097  0.52504423  0.42200658    -0.20200
C2530       C  0.80463958  0.50841312  0.43495711    -0.06700
C2531       C  0.83015510  0.51037814  0.43428973     0.14100
C2532       C  0.84082353  0.52998297  0.42249272    -0.20200
C2533       C  0.82678328  0.54700103  0.41041124    -0.06700
C2534       C  0.80152036  0.54397809  0.40934699     0.14100
C2535       C  0.78602331  0.56014317  0.39417862    -0.23600
H2536       H  0.77126445  0.52318888  0.42168336     0.15400
H2537       H  0.86030497  0.53190872  0.42234049     0.15400
C2538       C  0.84634752  0.49126016  0.44449965    -0.23500
H2539       H  0.76676227  0.55451561  0.39450581     0.05700
H2540       H  0.79223867  0.55940630  0.37529832     0.08900
H2541       H  0.78711584  0.57898911  0.40077106     0.08900
H2542       H  0.84139373  0.47341250  0.43677578     0.08900
H2543       H  0.84479919  0.49073566  0.46420671     0.08900
H2544       H  0.86562420  0.49474994  0.44029283     0.05600
C2545       C  0.71192728  0.43993666  0.40257882    -0.20200
C2546       C  0.69798599  0.42427231  0.41638988    -0.06700
C2547       C  0.70313297  0.42175271  0.44097415     0.14100
C2548       C  0.72248072  0.43479374  0.45113444    -0.20200
C2549       C  0.73724740  0.44999651  0.43720482    -0.06700
C2550       C  0.73155761  0.45270611  0.41243240     0.14100
C2551       C  0.74632773  0.46804425  0.39567667    -0.23600
H2552       H  0.70784377  0.44147362  0.38363074     0.15400
H2553       H  0.72639097  0.43256774  0.47002503     0.15400
C2554       C  0.68878055  0.40463584  0.45622989    -0.23500
H2555       H  0.73948694  0.46705479  0.37695361     0.05700
H2556       H  0.76530065  0.46173915  0.39543966     0.08900
H2557       H  0.74552156  0.48722437  0.40131105     0.08900
H2558       H  0.69022014  0.38606779  0.44888547     0.08900
H2559       H  0.66953454  0.41003133  0.45637294     0.08900
H2560       H  0.69539703  0.40450246  0.47504447     0.05600
C2561       C  0.80334871  0.24092664  0.32434665    -0.20200
C2562       C  0.81139592  0.24937798  0.30196709    -0.06700
C2563       C  0.82992003  0.23610237  0.29010191     0.14100
C2564       C  0.84040358  0.21613005  0.30148503    -0.20200
C2565       C  0.83316400  0.20885080  0.32430522    -0.06700
C2566       C  0.81395337  0.22099444  0.33559610     0.14100
C2567       C  0.80443400  0.21360056  0.35972846    -0.23600
H2568       H  0.78901197  0.25027515  0.33362661     0.15400
H2569       H  0.85504511  0.20656165  0.29290080     0.15400
C2570       C  0.83921804  0.24254616  0.26558232    -0.23500
H2571       H  0.80673889  0.22871965  0.37266950     0.05700
H2572       H  0.81368855  0.19762419  0.36711910     0.08900
H2573       H  0.78493181  0.20913623  0.35811685     0.08900
H2574       H  0.84866264  0.26020415  0.26628041     0.08900
H2575       H  0.82405990  0.24297872  0.25252061     0.08900
H2576       H  0.85245714  0.22920277  0.25884431     0.05600
C2577       C  0.73438281  0.30025560  0.31932161    -0.20200
C2578       C  0.75077657  0.31526685  0.30710417    -0.06700
C2579       C  0.74665244  0.34054450  0.30759859     0.14100
C2580       C  0.72601158  0.34967147  0.31906998    -0.20200
C2581       C  0.70954306  0.33457733  0.33079773    -0.06700
C2582       C  0.71412469  0.30954223  0.33135424     0.14100
C2583       C  0.69839003  0.29215655  0.34492819    -0.23600
H2584       H  0.73739214  0.28098829  0.31963314     0.15400
H2585       H  0.72275596  0.36890823  0.31914704     0.15400
C2586       C  0.76428077  0.35836716  0.29719238    -0.23500
H2587       H  0.70949457  0.28259734  0.35842833     0.05700
H2588       H  0.69047564  0.27872670  0.33228606     0.08900
H2589       H  0.68345385  0.30108110  0.35459172     0.08900
H2590       H  0.76470622  0.35657558  0.27747160     0.08900
H2591       H  0.78255594  0.35538412  0.30480113     0.08900
H2592       H  0.75916769  0.37725961  0.30129484     0.05600
C2593       C  0.81551089  0.33968398  0.20714855    -0.20200
C2594       C  0.84070870  0.33763888  0.20596317    -0.06700
C2595       C  0.85289213  0.32424308  0.22364654     0.14100
C2596       C  0.83972968  0.31403829  0.24254537    -0.20200
C2597       C  0.81449096  0.31636628  0.24412334    -0.06700
C2598       C  0.80219780  0.32895751  0.22575005     0.14100
C2599       C  0.77507218  0.33019284  0.22480915    -0.23600
H2600       H  0.80621424  0.34962972  0.19328136     0.15400
H2601       H  0.84932287  0.30419239  0.25626900     0.15400
C2602       C  0.87972720  0.32021804  0.22230130    -0.23500
H2603       H  0.76860482  0.33905037  0.20820867     0.05700
H2604       H  0.76822181  0.34078194  0.24013687     0.08900
H2605       H  0.76728891  0.31172628  0.22519601     0.08900
H2606       H  0.88954266  0.33764538  0.22358320     0.08900
H2607       H  0.88420206  0.31126852  0.20504624     0.08900
H2608       H  0.88623612  0.30858712  0.23707077     0.05600
C2609       C  0.08617871  0.32261315  0.67501284    -0.20200
C2610       C  0.07415953  0.33507781  0.65675637    -0.06700
C2611       C  0.04981574  0.32959850  0.65152564     0.14100
C2612       C  0.03766201  0.31248701  0.66544478    -0.20200
C2613       C  0.04933255  0.30075427  0.68440618    -0.06700
C2614       C  0.07391568  0.30564609  0.68911558     0.14100
C2615       C  0.08673035  0.29402905  0.70985296    -0.23600
H2616       H  0.10493557  0.32686526  0.67878575     0.15400
H2617       H  0.01863136  0.30904073  0.66225881     0.15400
C2618       C  0.03657657  0.34226575  0.63167122    -0.23500
H2619       H  0.10584584  0.30003539  0.71119919     0.05700
H2620       H  0.08643872  0.27415821  0.70752217     0.08900
H2621       H  0.07759782  0.29882678  0.72689072     0.08900
H2622       H  0.04574974  0.33889261  0.61433972     0.08900
H2623       H  0.03630079  0.36194501  0.63528983     0.08900
H2624       H  0.01762102  0.33584578  0.62998118     0.05600
C2625       C  0.99246761  0.56165245  0.65694176    -0.20200
C2626       C  0.99494431  0.56365078  0.68194140    -0.06700
C2627       C  0.97686026  0.57576583  0.69520718     0.14100
C2628       C  0.95746365  0.58631918  0.68297184    -0.20200
C2629       C  0.95555910  0.58492494  0.65796194    -0.06700
C2630       C  0.97304430  0.57208570  0.64479256     0.14100
C2631       C  0.97181461  0.56907311  0.61794153    -0.23600
H2632       H  0.00606300  0.55223475  0.64664597     0.15400
H2633       H  0.94381317  0.59603601  0.69290566     0.15400
C2634       C  0.97730959  0.57708223  0.72219928    -0.23500
H2635       H  0.98799053  0.57748359  0.60972943     0.05700
H2636       H  0.95556303  0.57730735  0.60986374     0.08900
H2637       H  0.97148017  0.54958833  0.61332895     0.08900
H2638       H  0.99275996  0.58819803  0.72848565     0.08900
H2639       H  0.97863968  0.55867061  0.72971172     0.08900
H2640       H  0.96068876  0.58546814  0.72942785     0.05600
C2641       C  0.09001630  0.47140385  0.67740690    -0.20200
C2642       C  0.07784637  0.46095950  0.65792946    -0.06700
C2643       C  0.05497549  0.46961764  0.65130166     0.14100
C2644       C  0.04533959  0.48951305  0.66351734    -0.20200
C2645       C  0.05784319  0.50095465  0.68257691    -0.06700
C2646       C  0.08034153  0.49105066  0.69005665     0.14100
C2647       C  0.09463190  0.50069302  0.71114108    -0.23600
H2648       H  0.10741618  0.46420404  0.68254465     0.15400
H2649       H  0.02795299  0.49625201  0.65781834     0.15400
C2650       C  0.04088799  0.45796416  0.63115284    -0.23500
H2651       H  0.11128482  0.49014674  0.71438854     0.05700
H2652       H  0.08361538  0.49957615  0.72766258     0.08900
H2653       H  0.10034313  0.51956422  0.70781790     0.08900
H2654       H  0.03738768  0.43875209  0.63540394     0.08900
H2655       H  0.05130199  0.45905639  0.61425023     0.08900
H2656       H  0.02323686  0.46687661  0.62825130     0.05600
C2657       C  0.07244003  0.55267222  0.75870333    -0.20200
C2658       C  0.06055189  0.56740392  0.74208196    -0.06700
C2659       C  0.06127746  0.59276158  0.74538798     0.14100
C2660       C  0.07340065  0.60244101  0.76541893    -0.20200
C2661       C  0.08529418  0.58759940  0.78184495    -0.06700
C2662       C  0.08501307  0.56239067  0.77833110     0.14100
C2663       C  0.09824887  0.54520519  0.79447241    -0.23600
H2664       H  0.07211688  0.53328527  0.75631236     0.15400
H2665       H  0.07407027  0.62179551  0.76810147     0.15400
C2666       C  0.05052173  0.60988499  0.72746813    -0.23500
H2667       H  0.11132958  0.53465765  0.78371803     0.05700
H2668       H  0.08512637  0.53260178  0.80274956     0.08900
H2669       H  0.10849845  0.55433642  0.80901981     0.08900
H2670       H  0.03064237  0.60786540  0.72695166     0.08900
H2671       H  0.05810154  0.60630137  0.70941958     0.08900
H2672       H  0.05453717  0.62897314  0.73216749     0.05600
C2673       C  0.29332660  0.55995505  0.57363754    -0.20200
C2674       C  0.29573864  0.58507663  0.57248509    -0.06700
C2675       C  0.27925403  0.59824174  0.55841087     0.14100
C2676       C  0.25996926  0.58616065  0.54700332    -0.20200
C2677       C  0.25680532  0.56106608  0.54891520    -0.06700
C2678       C  0.27437927  0.54771436  0.56175410     0.14100
C2679       C  0.27411228  0.52056774  0.56223180    -0.23600
H2680       H  0.30641156  0.54988077  0.58394565     0.15400
H2681       H  0.24703635  0.59654215  0.53682765     0.15400
C2682       C  0.28221742  0.62501735  0.55507230    -0.23500
H2683       H  0.29052252  0.51331237  0.57103806     0.05700
H2684       H  0.27347538  0.51334119  0.54363827     0.08900
H2685       H  0.25840139  0.51386914  0.57242370     0.08900
H2686       H  0.30028885  0.62892478  0.54745388     0.08900
H2687       H  0.28040232  0.63457179  0.57247054     0.08900
H2688       H  0.26840151  0.63232540  0.54266196     0.05600
C2689       C  0.17829264  0.47667800  0.58454487    -0.20200
C2690       C  0.16616187  0.45985822  0.56986303    -0.06700
C2691       C  0.16675220  0.46299664  0.54468769     0.14100
C2692       C  0.17963524  0.48257204  0.53503005    -0.20200
C2693       C  0.19143540  0.49966233  0.54974257    -0.06700
C2694       C  0.19047547  0.49668991  0.57496499     0.14100
C2695       C  0.20088408  0.51515479  0.59211333    -0.23600
H2696       H  0.17753191  0.47448365  0.60381872     0.15400
H2697       H  0.18003882  0.48474478  0.51574251     0.15400
C2698       C  0.15335325  0.44667728  0.52744776    -0.23500
H2699       H  0.19651841  0.51090125  0.61103150     0.05700
H2700       H  0.19335464  0.53318618  0.58813166     0.08900
H2701       H  0.22078578  0.51569460  0.59069141     0.08900
H2702       H  0.14237729  0.43272695  0.53645825     0.08900
H2703       H  0.16645028  0.43755540  0.51549040     0.08900
H2704       H  0.14087429  0.45754759  0.51634254     0.05600
C2705       C  0.27768392  0.68439727  0.69858537    -0.20200
C2706       C  0.26125885  0.69845592  0.68553373    -0.06700
C2707       C  0.26359393  0.69943718  0.66020043     0.14100
C2708       C  0.28242802  0.68688821  0.64894533    -0.20200
C2709       C  0.29877196  0.67294748  0.66206726    -0.06700
C2710       C  0.29618239  0.67148021  0.68722814     0.14100
C2711       C  0.31212798  0.65596608  0.70261324    -0.23600
H2712       H  0.27595152  0.68322254  0.71788765     0.15400
H2713       H  0.28425572  0.68761858  0.62962744     0.15400
C2714       C  0.24577835  0.71259245  0.64460321    -0.23500
H2715       H  0.30080833  0.64282424  0.71249615     0.05700
H2716       H  0.32202468  0.66748226  0.71574578     0.08900
H2717       H  0.32551140  0.64556927  0.69219384     0.08900
H2718       H  0.24699504  0.73224764  0.64800047     0.08900
H2719       H  0.22718994  0.70603266  0.64824592     0.08900
H2720       H  0.24936854  0.70966626  0.62523898     0.05600
C2721       C  0.21398278  0.68293113  0.76507172    -0.20200
C2722       C  0.20022812  0.69798640  0.75014129    -0.06700
C2723       C  0.17497789  0.69977280  0.75429886     0.14100
C2724       C  0.16442046  0.68643376  0.77278430    -0.20200
C2725       C  0.17813703  0.67141184  0.78741965    -0.06700
C2726       C  0.20325479  0.66973111  0.78372307     0.14100
C2727       C  0.21859075  0.65361847  0.79906412    -0.23600
H2728       H  0.23323301  0.68143431  0.76211806     0.15400
H2729       H  0.14513790  0.68751729  0.77579845     0.15400
C2730       C  0.15857500  0.71492265  0.73903076    -0.23500
H2731       H  0.23778914  0.65397442  0.79344134     0.05700
H2732       H  0.21190410  0.63476964  0.79765594     0.08900
H2733       H  0.21781767  0.65959798  0.81805163     0.08900
H2734       H  0.16036883  0.70963539  0.71990472     0.08900
H2735       H  0.16307599  0.73426539  0.74158577     0.08900
H2736       H  0.13930263  0.71262491  0.74395623     0.05600
C2737       C  0.17618734  0.76494486  0.69243581    -0.20200
C2738       C  0.20151462  0.76406352  0.69171987    -0.06700
C2739       C  0.21426322  0.78309848  0.68054892     0.14100
C2740       C  0.20128515  0.80142501  0.66896439    -0.20200
C2741       C  0.17593759  0.80155685  0.66882981    -0.06700
C2742       C  0.16328897  0.78351937  0.68145064     0.14100
C2743       C  0.13617425  0.78396038  0.68370630    -0.23600
H2744       H  0.16626512  0.75065433  0.70113148     0.15400
H2745       H  0.21092517  0.81565650  0.65978423     0.15400
C2746       C  0.24140210  0.78474715  0.68149670    -0.23500
H2747       H  0.12942772  0.76923033  0.69531724     0.05700
H2748       H  0.12746908  0.78171751  0.66591428     0.08900
H2749       H  0.13051768  0.80135174  0.69177201     0.08900
H2750       H  0.24955190  0.76966393  0.67135656     0.08900
H2751       H  0.24761774  0.78425441  0.70043276     0.08900
H2752       H  0.24812952  0.80176891  0.67350326     0.05600
C2753       C  0.16183601  0.56752257  0.45533465    -0.20200
C2754       C  0.17123030  0.59004193  0.44891096    -0.06700
C2755       C  0.19174248  0.59905473  0.46110069     0.14100
C2756       C  0.20181067  0.58581077  0.48002844    -0.20200
C2757       C  0.19219208  0.56337482  0.48719300    -0.06700
C2758       C  0.17202353  0.55395501  0.47409576     0.14100
C2759       C  0.16094167  0.52969589  0.47935201    -0.23600
H2760       H  0.14614920  0.56068460  0.44574823     0.15400
H2761       H  0.21724983  0.59337081  0.48943725     0.15400
C2762       C  0.20294968  0.62280866  0.45420240    -0.23500
H2763       H  0.14618052  0.52505684  0.46657179     0.05700
H2764       H  0.15300820  0.52970684  0.49757252     0.08900
H2765       H  0.17483150  0.51545316  0.47778157     0.08900
H2766       H  0.18976197  0.63757326  0.45655919     0.08900
H2767       H  0.20863112  0.62207453  0.43516178     0.08900
H2768       H  0.21907073  0.62717439  0.46533758     0.05600
C2769       C  0.05141352  0.67545536  0.48574977    -0.20200
C2770       C  0.05834489  0.69899586  0.49258208    -0.06700
C2771       C  0.07575172  0.71129952  0.47836103     0.14100
C2772       C  0.08608622  0.69947252  0.45860294    -0.20200
C2773       C  0.07959380  0.67583702  0.45249763    -0.06700
C2774       C  0.06183011  0.66379176  0.46595185     0.14100
C2775       C  0.05401114  0.63855028  0.45941870    -0.23600
H2776       H  0.03810297  0.66583465  0.49621660     0.15400
H2777       H  0.09969795  0.70854402  0.44800782     0.15400
C2778       C  0.08352421  0.73694057  0.48334926    -0.23500
H2779       H  0.03971206  0.63177640  0.47156347     0.05700
H2780       H  0.06961141  0.62616763  0.46060717     0.08900
H2781       H  0.04678556  0.63822334  0.44082739     0.08900
H2782       H  0.09367097  0.73801879  0.50050699     0.08900
H2783       H  0.06748784  0.74881431  0.48397357     0.08900
H2784       H  0.09568449  0.74395468  0.46921104     0.05600
C2785       C  0.98994839  0.67474385  0.55074177    -0.20200
C2786       C  0.99392329  0.69956928  0.55400191    -0.06700
C2787       C  0.97681601  0.71308287  0.56731668     0.14100
C2788       C  0.95713211  0.70114994  0.57793263    -0.20200
C2789       C  0.95388592  0.67620989  0.57536645    -0.06700
C2790       C  0.97019199  0.66295025  0.56110760     0.14100
C2791       C  0.96736234  0.63627992  0.55649108    -0.23600
H2792       H  0.00265367  0.66422043  0.54038365     0.15400
H2793       H  0.94438705  0.71123512  0.58866363     0.15400
C2794       C  0.97861160  0.74008277  0.56994816    -0.23500
H2795       H  0.96641855  0.63289685  0.53687833     0.05700
H2796       H  0.95080270  0.62851585  0.56446351     0.08900
H2797       H  0.98317086  0.62664861  0.56396282     0.08900
H2798       H  0.97994165  0.74848406  0.55199945     0.08900
H2799       H  0.99454095  0.74514612  0.58095402     0.08900
H2800       H  0.96252764  0.74767020  0.57901719     0.05600
C2801       C  0.07396056  0.77468606  0.54547049    -0.20200
C2802       C  0.06193048  0.75747547  0.55948683    -0.06700
C2803       C  0.06325639  0.75941590  0.58479628     0.14100
C2804       C  0.07567355  0.77898705  0.59523472    -0.20200
C2805       C  0.08737259  0.79628836  0.58115084    -0.06700
C2806       C  0.08695987  0.79380219  0.55592765     0.14100
C2807       C  0.10045929  0.81056162  0.53951358    -0.23600
H2808       H  0.07338344  0.77316233  0.52610114     0.15400
H2809       H  0.07650691  0.78073690  0.61458333     0.15400
C2810       C  0.05277099  0.74044670  0.60098931    -0.23500
H2811       H  0.08746517  0.81985917  0.52759114     0.05700
H2812       H  0.11314369  0.79998532  0.52832193     0.08900
H2813       H  0.11122234  0.82439634  0.54924242     0.08900
H2814       H  0.03284697  0.74011952  0.59947368     0.08900
H2815       H  0.05731126  0.74398494  0.62010217     0.08900
H2816       H  0.06010635  0.72251197  0.59611657     0.05600
C2817       C  0.94211251  0.21781734  0.67012210    -0.20200
C2818       C  0.95695542  0.20500107  0.68590004    -0.06700
C2819       C  0.95366426  0.18000208  0.68855037     0.14100
C2820       C  0.93466318  0.16856350  0.67618655    -0.20200
C2821       C  0.91878580  0.18178640  0.66171864    -0.06700
C2822       C  0.92303822  0.20654270  0.65794738     0.14100
C2823       C  0.90763127  0.22164220  0.64163402    -0.23600
H2824       H  0.94456220  0.23712745  0.66838759     0.15400
H2825       H  0.93161214  0.14940584  0.67842717     0.15400
C2826       C  0.96934790  0.16576006  0.70530837    -0.23500
H2827       H  0.91916403  0.22998901  0.62770669     0.05700
H2828       H  0.89889800  0.23613887  0.65221677     0.08900
H2829       H  0.89329179  0.21112868  0.63234798     0.08900
H2830       H  0.96746171  0.17272579  0.72389659     0.08900
H2831       H  0.98849451  0.16738852  0.69974171     0.08900
H2832       H  0.96433515  0.14635655  0.70521213     0.05600
C2833       C  0.68554418  0.30129813  0.66836455    -0.20200
C2834       C  0.66038718  0.30166885  0.67068164    -0.06700
C2835       C  0.64902577  0.28458234  0.68555702     0.14100
C2836       C  0.66297327  0.26676604  0.69668367    -0.20200
C2837       C  0.68817840  0.26556775  0.69361698    -0.06700
C2838       C  0.69961019  0.28368073  0.67973276     0.14100
C2839       C  0.72656300  0.28511493  0.67709228    -0.23600
H2840       H  0.69418087  0.31473081  0.65723496     0.15400
H2841       H  0.65393394  0.25340280  0.70756008     0.15400
C2842       C  0.62222355  0.28533135  0.69004250    -0.23500
H2843       H  0.73229072  0.30148327  0.66723137     0.05700
H2844       H  0.73300201  0.26933615  0.66676001     0.08900
H2845       H  0.73517780  0.28584842  0.69507671     0.08900
H2846       H  0.61207337  0.28216924  0.67314079     0.08900
H2847       H  0.61729593  0.30319708  0.69754763     0.08900
H2848       H  0.61647833  0.27133463  0.70298696     0.05600
C2849       C  0.66537598  0.20593237  0.75897205    -0.20200
C2850       C  0.69042964  0.20293893  0.75600651    -0.06700
C2851       C  0.70303976  0.18845844  0.77280465     0.14100
C2852       C  0.69025538  0.17727474  0.79149820    -0.20200
C2853       C  0.66523879  0.17994971  0.79395000    -0.06700
C2854       C  0.65269405  0.19464003  0.77759044     0.14100
C2855       C  0.62593404  0.19872167  0.77993228    -0.23600
H2856       H  0.65544476  0.21692831  0.74640435     0.15400
H2857       H  0.69978442  0.16609118  0.80422112     0.15400
C2858       C  0.72996105  0.18489875  0.77166161    -0.23500
H2859       H  0.61912365  0.21138620  0.76618163     0.05700
H2860       H  0.62195611  0.20644831  0.79787233     0.08900
H2861       H  0.61594847  0.18148290  0.77765970     0.08900
H2862       H  0.73931729  0.20264133  0.77178029     0.08900
H2863       H  0.73472131  0.17460539  0.75526309     0.08900
H2864       H  0.73677461  0.17452035  0.78720951     0.05600
C2865       C  0.75572755  0.17984478  0.69437881    -0.20200
C2866       C  0.75443675  0.20514772  0.69435139    -0.06700
C2867       C  0.77328275  0.21827113  0.68311736     0.14100
C2868       C  0.79127259  0.20582878  0.67042764    -0.20200
C2869       C  0.79213488  0.18057026  0.67003812    -0.06700
C2870       C  0.77448047  0.16746135  0.68288350     0.14100
C2871       C  0.77492123  0.14040860  0.68506769    -0.23600
H2872       H  0.74184167  0.16947807  0.70334826     0.15400
H2873       H  0.80510490  0.21596671  0.66112326     0.15400
C2874       C  0.77607953  0.24517287  0.68523710    -0.23500
H2875       H  0.77522051  0.13545753  0.70431459     0.05700
H2876       H  0.79093548  0.13212460  0.67663396     0.08900
H2877       H  0.75846847  0.13258054  0.67658727     0.08900
H2878       H  0.76337157  0.25327253  0.69813056     0.08900
H2879       H  0.77375679  0.25350469  0.66735845     0.08900
H2880       H  0.79448063  0.24956713  0.69199198     0.05600
C2881       C  0.48015400  0.16564519  0.55072056    -0.20200
C2882       C  0.48445762  0.18976852  0.55767096    -0.06700
C2883       C  0.46955328  0.20017880  0.57565166     0.14100
C2884       C  0.45145903  0.18609889  0.58625441    -0.20200
C2885       C  0.44783075  0.16202734  0.57960608    -0.06700
C2886       C  0.46211005  0.15168130  0.56154529     0.14100
C2887       C  0.45831508  0.12588612  0.55384144    -0.23600
H2888       H  0.49125082  0.15740070  0.53704205     0.15400
H2889       H  0.44015725  0.19378706  0.60011345     0.15400
C2890       C  0.47203168  0.22605985  0.58376567    -0.23500
H2891       H  0.47095698  0.12056583  0.53938415     0.05700
H2892       H  0.43960434  0.12338908  0.54703418     0.08900
H2893       H  0.46125629  0.11377943  0.56932205     0.08900
H2894       H  0.47060129  0.23822931  0.56812434     0.08900
H2895       H  0.48954118  0.22887516  0.59311898     0.08900
H2896       H  0.45766508  0.23120256  0.59660778     0.05600
C2897       C  0.57012302  0.19684302  0.45711244    -0.20200
C2898       C  0.56554293  0.17250585  0.45231694    -0.06700
C2899       C  0.54930392  0.15967686  0.46687989     0.14100
C2900       C  0.53871373  0.17130969  0.48657478    -0.20200
C2901       C  0.54409765  0.19554324  0.49235402    -0.06700
C2902       C  0.55968784  0.20859414  0.47684397     0.14100
C2903       C  0.56542551  0.23489182  0.48041542    -0.23600
H2904       H  0.58266483  0.20646614  0.44573345     0.15400
H2905       H  0.52670134  0.16103509  0.49792315     0.15400
C2906       C  0.54346925  0.13359072  0.46180439    -0.23500
H2907       H  0.57682324  0.24213340  0.46577598     0.05700
H2908       H  0.57562969  0.23766311  0.49735465     0.08900
H2909       H  0.54841733  0.24528578  0.48046556     0.08900
H2910       H  0.56005882  0.12258530  0.46319624     0.08900
H2911       H  0.53585260  0.13172495  0.44344485     0.08900
H2912       H  0.53006603  0.12630942  0.47464705     0.05600
C2913       C  0.54704469  0.25401238  0.58469227    -0.20200
C2914       C  0.54522539  0.25491388  0.55956005    -0.06700
C2915       C  0.55393182  0.27561383  0.54759922     0.14100
C2916       C  0.56610878  0.29356649  0.56072219    -0.20200
C2917       C  0.56795864  0.29264709  0.58578892    -0.06700
C2918       C  0.55768536  0.27284226  0.59799775     0.14100
C2919       C  0.55718074  0.27111744  0.62494751    -0.23600
H2920       H  0.53993476  0.23852491  0.59413556     0.15400
H2921       H  0.57348034  0.30898342  0.55134897     0.15400
C2922       C  0.54927729  0.28043849  0.52148180    -0.23500
H2923       H  0.53824433  0.26881466  0.63098421     0.05700
H2924       H  0.56451221  0.28736578  0.63408017     0.08900
H2925       H  0.56780324  0.25528459  0.63075506     0.08900
H2926       H  0.53614300  0.26769364  0.51339612     0.08900
H2927       H  0.56652456  0.27994094  0.51146625     0.08900
H2928       H  0.54127329  0.29861379  0.51950611     0.05600
C2929       C  0.69504528  0.08494656  0.48377945    -0.20200
C2930       C  0.68199543  0.06886990  0.49831348    -0.06700
C2931       C  0.65728166  0.06426977  0.49271829     0.14100
C2932       C  0.64678987  0.07549424  0.47279879    -0.20200
C2933       C  0.65997124  0.09144581  0.45855660    -0.06700
C2934       C  0.68428527  0.09648357  0.46422187     0.14100
C2935       C  0.69867577  0.11457054  0.45009934    -0.23600
H2936       H  0.71383141  0.08867284  0.48771960     0.15400
H2937       H  0.62798382  0.07211782  0.46841213     0.15400
C2938       C  0.64134986  0.04831786  0.50777427    -0.23500
H2939       H  0.71719787  0.11695930  0.45745955     0.05700
H2940       H  0.68956486  0.13231927  0.45067407     0.08900
H2941       H  0.70029180  0.10854284  0.43119586     0.08900
H2942       H  0.64143869  0.05479160  0.52664270     0.08900
H2943       H  0.64764092  0.02941857  0.50678053     0.08900
H2944       H  0.62231792  0.04835495  0.50143677     0.05600
C2945       C  0.67145534  0.99117922  0.54657391    -0.20200
C2946       C  0.68663117  0.00620644  0.56049535    -0.06700
C2947       C  0.68971797  0.00096635  0.58521393     0.14100
C2948       C  0.67745529  0.98122456  0.59508610    -0.20200
C2949       C  0.66202251  0.96673546  0.58118255    -0.06700
C2950       C  0.65892652  0.97174233  0.55661115     0.14100
C2951       C  0.64204420  0.95746064  0.54062967    -0.23600
H2952       H  0.66893412  0.99481745  0.52767493     0.15400
H2953       H  0.67955722  0.97722064  0.61396951     0.15400
C2954       C  0.70503408  0.01634479  0.60172340    -0.23500
H2955       H  0.62832188  0.96968234  0.53287736     0.05700
H2956       H  0.63230206  0.94296253  0.55019065     0.08900
H2957       H  0.65243426  0.94909951  0.52582094     0.08900
H2958       H  0.69867348  0.03526401  0.60135680     0.08900
H2959       H  0.72422091  0.01538656  0.59623442     0.08900
H2960       H  0.70409199  0.01015741  0.62058538     0.05600
C2961       C  0.78487217  0.09555208  0.55656540    -0.20200
C2962       C  0.78831757  0.09305052  0.58130315    -0.06700
C2963       C  0.77208537  0.07884475  0.59459995     0.14100
C2964       C  0.75233391  0.06802368  0.58295015    -0.20200
C2965       C  0.74833556  0.07084789  0.55821196    -0.06700
C2966       C  0.76511887  0.08464080  0.54478234     0.14100
C2967       C  0.76277067  0.08772713  0.51807888    -0.23600
H2968       H  0.79756842  0.10641018  0.54652440     0.15400
H2969       H  0.73970927  0.05758244  0.59343441     0.15400
C2970       C  0.77572910  0.07488852  0.62107273    -0.23500
H2971       H  0.77859916  0.09730646  0.51045546     0.05700
H2972       H  0.74661970  0.09864283  0.51396089     0.08900
H2973       H  0.76139799  0.06984157  0.50913765     0.08900
H2974       H  0.77465586  0.09225258  0.63093976     0.08900
H2975       H  0.79369430  0.06673153  0.62425093     0.08900
H2976       H  0.76180674  0.06261409  0.62854303     0.05600
C2977       C  0.47810495  0.08199740  0.70658737    -0.20200
C2978       C  0.48613552  0.05913920  0.69900614    -0.06700
C2979       C  0.47293485  0.04705079  0.68047590     0.14100
C2980       C  0.45371586  0.05889529  0.66912390    -0.20200
C2981       C  0.44684715  0.08215157  0.67593753    -0.06700
C2982       C  0.45860172  0.09350200  0.69548346     0.14100
C2983       C  0.45131613  0.11793568  0.70477968    -0.23600
H2984       H  0.48740179  0.09141455  0.72101087     0.15400
H2985       H  0.44415867  0.05013079  0.65444697     0.15400
C2986       C  0.47849940  0.02171388  0.67238783    -0.23500
H2987       H  0.44646326  0.11655371  0.72400492     0.05700
H2988       H  0.43557492  0.12545559  0.69513220     0.08900
H2989       H  0.46666355  0.13073520  0.70296521     0.08900
H2990       H  0.47829950  0.00941360  0.68799574     0.08900
H2991       H  0.49628315  0.02118668  0.66336799     0.08900
H2992       H  0.46495605  0.01479235  0.65927588     0.05600
C2993       C  0.54876406  0.09069845  0.76104821    -0.20200
C2994       C  0.55072462  0.06545357  0.76024832    -0.06700
C2995       C  0.56339567  0.05374186  0.77892173     0.14100
C2996       C  0.57499565  0.06761587  0.79681347    -0.20200
C2997       C  0.57383378  0.09287225  0.79696635    -0.06700
C2998       C  0.55991442  0.10449900  0.77921314     0.14100
C2999       C  0.55622234  0.13137324  0.77901191    -0.23600
H3000       H  0.53867757  0.09986603  0.74717532     0.15400
H3001       H  0.58522580  0.05872146  0.81075472     0.15400
C3002       C  0.56400502  0.02668143  0.78074888    -0.23500
H3003       H  0.53660661  0.13527571  0.77971688     0.05700
H3004       H  0.56374225  0.13897534  0.76225856     0.08900
H3005       H  0.56487402  0.14072548  0.79443266     0.08900
H3006       H  0.57416552  0.01884431  0.76557437     0.08900
H3007       H  0.54530086  0.01938511  0.78074930     0.08900
H3008       H  0.57299703  0.02077141  0.79752006     0.05600
C3009       C  0.54040098  0.98513452  0.68416467    -0.20200
C3010       C  0.55441779  0.00222664  0.69689400    -0.06700
C3011       C  0.57994013  0.00024337  0.69620922     0.14100
C3012       C  0.59046686  0.98089750  0.68375141    -0.20200
C3013       C  0.57637025  0.96388543  0.67123421    -0.06700
C3014       C  0.55102758  0.96632470  0.67103956     0.14100
C3015       C  0.53520939  0.94982065  0.65613276    -0.23600
H3016       H  0.52092442  0.98664835  0.68418515     0.15400
H3017       H  0.60994741  0.97932230  0.68320188     0.15400
C3018       C  0.59637773  0.01900522  0.70729528    -0.23500
H3019       H  0.51592198  0.95504581  0.65709102     0.05700
H3020       H  0.53662216  0.93102704  0.66251695     0.08900
H3021       H  0.54083339  0.95061403  0.63707970     0.08900
H3022       H  0.59451256  0.01900904  0.72704858     0.08900
H3023       H  0.59191553  0.03705966  0.70012721     0.08900
H3024       H  0.61564357  0.01548015  0.70322804     0.05600
C3025       C  0.08736017  0.05377127  0.42029894    -0.20200
C3026       C  0.08224473  0.07745373  0.41389739    -0.06700
C3027       C  0.06823105  0.09200851  0.42915355     0.14100
C3028       C  0.05860160  0.08210499  0.45009725    -0.20200
C3029       C  0.06290253  0.05799626  0.45636793    -0.06700
C3030       C  0.07810621  0.04380025  0.44138527     0.14100
C3031       C  0.08434496  0.01796203  0.44675776    -0.23600
H3032       H  0.09885666  0.04312577  0.40872365     0.15400
H3033       H  0.04709377  0.09312250  0.46129306     0.15400
C3034       C  0.06332014  0.11795287  0.42316208    -0.23500
H3035       H  0.09657695  0.01011090  0.43310060     0.05700
H3036       H  0.06776583  0.00672317  0.44686349     0.08900
H3037       H  0.09367781  0.01690639  0.46435681     0.08900
H3038       H  0.05393792  0.11898881  0.40558265     0.08900
H3039       H  0.08058625  0.12815052  0.42224641     0.08900
H3040       H  0.05178176  0.12674174  0.43684595     0.05600
C3041       C  0.95114175  0.06473385  0.58175057    -0.20200
C3042       C  0.95541261  0.06852888  0.55724848    -0.06700
C3043       C  0.93903839  0.08311664  0.54410163     0.14100
C3044       C  0.91926112  0.09344900  0.55583671    -0.20200
C3045       C  0.91514632  0.08956742  0.58019765    -0.06700
C3046       C  0.93129288  0.07508202  0.59338044     0.14100
C3047       C  0.92797084  0.07002136  0.61966762    -0.23600
H3048       H  0.96315861  0.05324587  0.59186866     0.15400
H3049       H  0.90697773  0.10492148  0.54602290     0.15400
C3050       C  0.94146264  0.08725872  0.51750651    -0.23500
H3051       H  0.94380214  0.07700904  0.62986930     0.05700
H3052       H  0.92651495  0.05027419  0.62240455     0.08900
H3053       H  0.91150490  0.07836864  0.62716357     0.08900
H3054       H  0.94100128  0.06976284  0.50775931     0.08900
H3055       H  0.95859425  0.09694365  0.51374044     0.08900
H3056       H  0.92653629  0.09839209  0.51031311     0.05600
C3057       C  0.06774747  0.93706532  0.59356831    -0.20200
C3058       C  0.08279177  0.92226484  0.57984324    -0.06700
C3059       C  0.08611060  0.92708068  0.55537816     0.14100
C3060       C  0.07338616  0.94600885  0.54488734    -0.20200
C3061       C  0.05750376  0.96057647  0.55829535    -0.06700
C3062       C  0.05506391  0.95621397  0.58320500     0.14100
C3063       C  0.03957179  0.97163272  0.59919533    -0.23600
H3064       H  0.06606718  0.93360977  0.61258708     0.15400
H3065       H  0.07565093  0.94906331  0.52587368     0.15400
C3066       C  0.10342839  0.91253708  0.54047199    -0.23500
H3067       H  0.04140066  0.96654888  0.61833173     0.05700
H3068       H  0.02026836  0.96940661  0.59426242     0.08900
H3069       H  0.04507614  0.99081860  0.59760014     0.08900
H3070       H  0.09776910  0.89333184  0.54018590     0.08900
H3071       H  0.12187692  0.91403604  0.54820954     0.08900
H3072       H  0.10413326  0.91892381  0.52166584     0.05600
C3073       C  0.90694319  0.07295956  0.43410718    -0.20200
C3074       C  0.92026360  0.08878314  0.41960891    -0.06700
C3075       C  0.94504857  0.08475677  0.41596395     0.14100
C3076       C  0.95619914  0.06560646  0.42768996    -0.20200
C3077       C  0.94322682  0.05034659  0.44301997    -0.06700
C3078       C  0.91825283  0.05384449  0.44609305     0.14100
C3079       C  0.90386503  0.03812714  0.46269938    -0.23600
H3080       H  0.88772440  0.07575875  0.43618040     0.15400
H3081       H  0.97548713  0.06310122  0.42571255     0.15400
C3082       C  0.95969955  0.10060049  0.39962243    -0.23500
H3083       H  0.88457852  0.04343031  0.46314998     0.05700
H3084       H  0.91124640  0.03961167  0.48118462     0.08900
H3085       H  0.90484010  0.01909135  0.45658577     0.08900
H3086       H  0.95957218  0.11945329  0.40634379     0.08900
H3087       H  0.95194913  0.09999230  0.38124680     0.08900
H3088       H  0.97878253  0.09469754  0.39858551     0.05600
C3089       C  0.81377439  0.44760785  0.70052309    -0.20200
C3090       C  0.78934261  0.44260018  0.70454656    -0.06700
C3091       C  0.77746308  0.42465325  0.69070369     0.14100
C3092       C  0.79001225  0.41296587  0.67226452    -0.20200
C3093       C  0.81401219  0.41909226  0.66729243    -0.06700
C3094       C  0.82627473  0.43605300  0.68196742     0.14100
C3095       C  0.85226013  0.44261792  0.67739379    -0.23600
H3096       H  0.82257959  0.46184810  0.71075078     0.15400
H3097       H  0.78098200  0.39942565  0.66132503     0.15400
C3098       C  0.75133301  0.41835791  0.69500988    -0.23500
H3099       H  0.85894711  0.45654399  0.69021299     0.05700
H3100       H  0.85414523  0.44980612  0.65897253     0.08900
H3101       H  0.86375999  0.42643994  0.67930836     0.08900
H3102       H  0.73975467  0.43426213  0.69181902     0.08900
H3103       H  0.74903414  0.41233543  0.71380078     0.08900
H3104       H  0.74498834  0.40363076  0.68292446     0.05600
C3105       C  0.69266362  0.45408255  0.66244342    -0.20200
C3106       C  0.67899342  0.46879034  0.67791955    -0.06700
C3107       C  0.65422864  0.46324977  0.68140828     0.14100
C3108       C  0.64439530  0.44259897  0.67045335    -0.20200
C3109       C  0.65864857  0.42723230  0.65653331    -0.06700
C3110       C  0.68282566  0.43329450  0.65189026     0.14100
C3111       C  0.69823948  0.41772560  0.63598846    -0.23600
H3112       H  0.71160455  0.45801392  0.65957371     0.15400
H3113       H  0.62554338  0.43805688  0.67312452     0.15400
C3114       C  0.63795081  0.47873726  0.69656200    -0.23500
H3115       H  0.71681087  0.42512508  0.63420577     0.05700
H3116       H  0.69006199  0.41652174  0.61781857     0.08900
H3117       H  0.69958644  0.39937221  0.64362104     0.08900
H3118       H  0.63914791  0.49775486  0.69063974     0.08900
H3119       H  0.64299911  0.47740265  0.71575440     0.08900
H3120       H  0.61878012  0.47294083  0.69501765     0.05600
C3121       C  0.79261196  0.55699194  0.65845690    -0.20200
C3122       C  0.78993990  0.56198792  0.68303602    -0.06700
C3123       C  0.80786548  0.57612808  0.69497790     0.14100
C3124       C  0.82738012  0.58525158  0.68191041    -0.20200
C3125       C  0.82963438  0.58062805  0.65738158    -0.06700
C3126       C  0.81220449  0.56623055  0.64548184     0.14100
C3127       C  0.81441095  0.56054502  0.61915337    -0.23600
H3128       H  0.77932830  0.54577276  0.64935505     0.15400
H3129       H  0.84081017  0.59651997  0.69075545     0.15400
C3130       C  0.80722314  0.58118863  0.72159034    -0.23500
H3131       H  0.79955993  0.54857494  0.61276527     0.05700
H3132       H  0.83180115  0.55132805  0.61576390     0.08900
H3133       H  0.81376615  0.57737650  0.60856960     0.08900
H3134       H  0.80677662  0.56399451  0.73164222     0.08900
H3135       H  0.79116621  0.59215256  0.72606584     0.08900
H3136       H  0.82337148  0.59146675  0.72778049     0.05600
C3137       C  0.68334499  0.60007948  0.81586698    -0.20200
C3138       C  0.66012306  0.59288089  0.82243480    -0.06700
C3139       C  0.64756738  0.57560641  0.80848432     0.14100
C3140       C  0.65893722  0.56541648  0.78852394    -0.20200
C3141       C  0.68260848  0.57201842  0.78206661    -0.06700
C3142       C  0.69482634  0.59004699  0.79588570     0.14100
C3143       C  0.72007776  0.59871456  0.79040565    -0.23600
H3144       H  0.69242307  0.61389882  0.82643399     0.15400
H3145       H  0.64934171  0.55167909  0.77831819     0.15400
C3146       C  0.62228338  0.56741142  0.81427869    -0.23500
H3147       H  0.72614720  0.61316346  0.80295266     0.05700
H3148       H  0.72069710  0.60625435  0.77204268     0.08900
H3149       H  0.73307628  0.58370179  0.79212988     0.08900
H3150       H  0.61011077  0.57153810  0.79901180     0.08900
H3151       H  0.61493602  0.57619445  0.83055570     0.08900
H3152       H  0.62215164  0.54765896  0.81728142     0.05600
C3153       C  0.49341698  0.58443307  0.19312109    -0.20200
C3154       C  0.49519309  0.55924914  0.19114695    -0.06700
C3155       C  0.47747532  0.54643841  0.17764155     0.14100
C3156       C  0.45936365  0.55923367  0.16561650    -0.20200
C3157       C  0.45811970  0.58439369  0.16708801    -0.06700
C3158       C  0.47506752  0.59713040  0.18137479     0.14100
C3159       C  0.47352089  0.62405300  0.18470354    -0.23600
H3160       H  0.50667729  0.59433534  0.20365481     0.15400
H3161       H  0.44598826  0.54957789  0.15499066     0.15400
C3162       C  0.47688611  0.51931241  0.17636754    -0.23500
H3163       H  0.48746967  0.63091667  0.19740795     0.05700
H3164       H  0.45553766  0.62884450  0.19194675     0.08900
H3165       H  0.47626556  0.63331473  0.16738265     0.08900
H3166       H  0.47710537  0.51173310  0.19473510     0.08900
H3167       H  0.49254866  0.51264118  0.16605476     0.08900
H3168       H  0.46035877  0.51250585  0.16717380     0.05600
C3169       C  0.59173266  0.47270163  0.17765570    -0.20200
C3170       C  0.57661177  0.45747973  0.16411284    -0.06700
C3171       C  0.55149003  0.46139643  0.16408449     0.14100
C3172       C  0.54209484  0.48043046  0.17771745    -0.20200
C3173       C  0.55718425  0.49614404  0.19090902    -0.06700
C3174       C  0.58245820  0.49216879  0.19082555     0.14100
C3175       C  0.60000840  0.50897960  0.20326176    -0.23600
H3176       H  0.61105084  0.46977215  0.17717700     0.15400
H3177       H  0.52278643  0.48329536  0.17770950     0.15400
C3178       C  0.53467235  0.44623346  0.14886926    -0.23500
H3179       H  0.61903819  0.50399121  0.19966404     0.05700
H3180       H  0.59744107  0.50826251  0.22290003     0.08900
H3181       H  0.59735460  0.52766685  0.19684143     0.08900
H3182       H  0.53515835  0.42720552  0.15472727     0.08900
H3183       H  0.54015492  0.44727412  0.12979102     0.08900
H3184       H  0.51571108  0.45245319  0.15020088     0.05600
C3185       C  0.49322624  0.70101789  0.08220439    -0.20200
C3186       C  0.49398118  0.69926438  0.05701402    -0.06700
C3187       C  0.47512338  0.68666623  0.04489286     0.14100
C3188       C  0.45738769  0.67474847  0.05833806    -0.20200
C3189       C  0.45713847  0.67612382  0.08341403    -0.06700
C3190       C  0.47493226  0.68986255  0.09548368     0.14100
C3191       C  0.47449833  0.69294821  0.12233877    -0.23600
H3192       H  0.50726147  0.71090762  0.09170229     0.15400
H3193       H  0.44328726  0.66462478  0.04915654     0.15400
C3194       C  0.47209213  0.68622749  0.01802707    -0.23500
H3195       H  0.48935461  0.70487283  0.12880450     0.05700
H3196       H  0.47651472  0.67524946  0.13120327     0.08900
H3197       H  0.45712089  0.70111782  0.12782216     0.08900
H3198       H  0.47501447  0.66767087  0.01115542     0.08900
H3199       H  0.48417356  0.69886563  0.00859376     0.08900
H3200       H  0.45343207  0.69175163  0.01335872     0.05600
C3201       C  0.55861367  0.79657166  0.08229644    -0.20200
C3202       C  0.58368798  0.79815007  0.07999931    -0.06700
C3203       C  0.59594575  0.78181113  0.06506485     0.14100
C3204       C  0.58284983  0.76352524  0.05336749    -0.20200
C3205       C  0.55773584  0.76116463  0.05629591    -0.06700
C3206       C  0.54537971  0.77833416  0.07061261     0.14100
C3207       C  0.51831783  0.77809152  0.07339130    -0.23600
H3208       H  0.54945231  0.80950673  0.09363821     0.15400
H3209       H  0.59244041  0.75066822  0.04231465     0.15400
C3210       C  0.62282858  0.78373259  0.06151889    -0.23500
H3211       H  0.51187187  0.79416100  0.08338708     0.05700
H3212       H  0.51250705  0.76202602  0.08362062     0.08900
H3213       H  0.50952245  0.77811484  0.05547472     0.08900
H3214       H  0.63232089  0.78143537  0.07889931     0.08900
H3215       H  0.62740974  0.80168824  0.05409668     0.08900
H3216       H  0.62952792  0.76976694  0.04890333     0.05600
C3217       C  0.56872724  0.71576647  0.97713284    -0.20200
C3218       C  0.55500618  0.70032398  0.99178051    -0.06700
C3219       C  0.55293571  0.67564657  0.98519612     0.14100
C3220       C  0.56483631  0.66729089  0.96462254    -0.20200
C3221       C  0.57885151  0.68269330  0.95046693    -0.06700
C3222       C  0.58075831  0.70729190  0.95672360     0.14100
C3223       C  0.59581225  0.72495061  0.94274096    -0.23600
H3224       H  0.57042826  0.73469442  0.98176987     0.15400
H3225       H  0.56366935  0.64838329  0.95973216     0.15400
C3226       C  0.53913036  0.65764401  0.99998888    -0.23500
H3227       H  0.60980260  0.73302621  0.95467743     0.05700
H3228       H  0.58408650  0.73951587  0.93583884     0.08900
H3229       H  0.60513706  0.71658837  0.92730087     0.08900
H3230       H  0.51966967  0.66216229  0.99997310     0.08900
H3231       H  0.54624708  0.65757703  0.01861709     0.08900
H3232       H  0.54074195  0.63905362  0.99271693     0.05600
C3233       C  0.68485383  0.50018404  0.07323189    -0.20200
C3234       C  0.68038217  0.50589006  0.04905135    -0.06700
C3235       C  0.66458746  0.49051194  0.03565373     0.14100
C3236       C  0.65388443  0.47043010  0.04681357    -0.20200
C3237       C  0.65834940  0.46512317  0.07093276    -0.06700
C3238       C  0.67426395  0.48008920  0.08423023     0.14100
C3239       C  0.68069331  0.47530900  0.11004313    -0.23600
H3240       H  0.69671366  0.51154263  0.08390933     0.15400
H3241       H  0.64160096  0.45889423  0.03675262     0.15400
C3242       C  0.65886240  0.49468329  0.00960114    -0.23500
H3243       H  0.70056299  0.47345352  0.11179349     0.05700
H3244       H  0.67236262  0.45860680  0.11705380     0.08900
H3245       H  0.67473160  0.49065112  0.12137290     0.08900
H3246       H  0.67578132  0.49545479  0.99904993     0.08900
H3247       H  0.64863658  0.51165095  0.00766210     0.08900
H3248       H  0.64745894  0.48002005  0.00188881     0.05600
C3249       C  0.77390077  0.57286719  0.08763669    -0.20200
C3250       C  0.78651653  0.59097602  0.07553128    -0.06700
C3251       C  0.77921245  0.59729997  0.05219314     0.14100
C3252       C  0.75938924  0.58541182  0.04163741    -0.20200
C3253       C  0.74613446  0.56746698  0.05376569    -0.06700
C3254       C  0.75389174  0.56099998  0.07721953     0.14100
C3255       C  0.74124954  0.54208598  0.09188220    -0.23600
H3256       H  0.77965801  0.56822056  0.10560610     0.15400
H3257       H  0.75427564  0.59051763  0.02367648     0.15400
C3258       C  0.79157732  0.61683569  0.03808774    -0.23500
H3259       H  0.74968613  0.53995714  0.10982966     0.05700
H3260       H  0.74226184  0.52434284  0.08267746     0.08900
H3261       H  0.72217038  0.54728681  0.09475664     0.08900
H3262       H  0.79870090  0.60912176  0.02115133     0.08900
H3263       H  0.80681596  0.62540304  0.04791731     0.08900
H3264       H  0.77836260  0.63111535  0.03368895     0.05600
C3265       C  0.68708152  0.60017565  0.95542929    -0.20200
C3266       C  0.66391926  0.59342618  0.94792623    -0.06700
C3267       C  0.65172388  0.57470691  0.95978122     0.14100
C3268       C  0.66273306  0.56356246  0.97945837    -0.20200
C3269       C  0.68574958  0.57070045  0.98787742    -0.06700
C3270       C  0.69819677  0.58925446  0.97523710     0.14100
C3271       C  0.72300871  0.59813662  0.98220917    -0.23600
H3272       H  0.69619024  0.61465031  0.94608086     0.15400
H3273       H  0.65286644  0.54953424  0.98860163     0.15400
C3274       C  0.62688492  0.56676465  0.95182300    -0.23500
H3275       H  0.73002878  0.61178903  0.96950918     0.05700
H3276       H  0.73589999  0.58291393  0.98221279     0.08900
H3277       H  0.72232595  0.60693408  0.00009380     0.08900
H3278       H  0.62749698  0.56033913  0.93295631     0.08900
H3279       H  0.61418562  0.58209883  0.95315469     0.08900
H3280       H  0.61980088  0.55186133  0.96300688     0.05600
C3281       C  0.57892108  0.55485511  0.29335290    -0.20200
C3282       C  0.57862185  0.58001033  0.29559181    -0.06700
C3283       C  0.56584547  0.59373662  0.27853536     0.14100
C3284       C  0.55483591  0.58203222  0.25896094    -0.20200
C3285       C  0.55572902  0.55686495  0.25622335    -0.06700
C3286       C  0.56716008  0.54303980  0.27424924     0.14100
C3287       C  0.56612192  0.51590020  0.27427806    -0.23600
H3288       H  0.58834360  0.54441533  0.30676984     0.15400
H3289       H  0.54572332  0.59270861  0.24552609     0.15400
C3290       C  0.56336541  0.62067348  0.28114755    -0.23500
H3291       H  0.57389461  0.50837286  0.29099199     0.05700
H3292       H  0.57658858  0.50842954  0.25916126     0.08900
H3293       H  0.54705800  0.50973515  0.27297055     0.08900
H3294       H  0.58122548  0.62964772  0.27990289     0.08900
H3295       H  0.55513425  0.62503739  0.29873732     0.08900
H3296       H  0.55169114  0.62830395  0.26689912     0.05600
C3297       C  0.70166898  0.67672332  0.27480186    -0.20200
C3298       C  0.68778273  0.69143400  0.25957173    -0.06700
C3299       C  0.66281386  0.69434750  0.26474356     0.14100
C3300       C  0.65287664  0.68294291  0.28480918    -0.20200
C3301       C  0.66674318  0.66827978  0.29971100    -0.06700
C3302       C  0.69139860  0.66495912  0.29462060     0.14100
C3303       C  0.70662410  0.64841968  0.30960489    -0.23600
H3304       H  0.72065267  0.67414919  0.27108086     0.15400
H3305       H  0.63381229  0.68489134  0.28861981     0.15400
C3306       C  0.64593823  0.70847290  0.24893822    -0.23500
H3307       H  0.72541855  0.64738956  0.30286770     0.05700
H3308       H  0.69875382  0.62998227  0.30921045     0.08900
H3309       H  0.70734495  0.65499221  0.32840257     0.08900
H3310       H  0.64660424  0.70142065  0.23028704     0.08900
H3311       H  0.65087495  0.72785710  0.24943026     0.08900
H3312       H  0.62690766  0.70709241  0.25496913     0.05600
C3313       C  0.78937304  0.69424418  0.17476749    -0.20200
C3314       C  0.78995174  0.66906216  0.17294061    -0.06700
C3315       C  0.77265549  0.65521158  0.18535769     0.14100
C3316       C  0.75413104  0.66691856  0.19787716    -0.20200
C3317       C  0.75266145  0.69217670  0.19859508    -0.06700
C3318       C  0.77121209  0.70600015  0.18775977     0.14100
C3319       C  0.77269036  0.73300246  0.19061007    -0.23600
H3320       H  0.80316937  0.70473744  0.16581112     0.15400
H3321       H  0.74033767  0.65623567  0.20659786     0.15400
C3322       C  0.77389007  0.62810323  0.18563239    -0.23500
H3323       H  0.78960389  0.74040675  0.18289447     0.05700
H3324       H  0.77239259  0.73787434  0.20993428     0.08900
H3325       H  0.75749925  0.74179802  0.18128261     0.08900
H3326       H  0.79164548  0.62242421  0.19287810     0.08900
H3327       H  0.77156940  0.62069741  0.16726597     0.08900
H3328       H  0.75956325  0.62015226  0.19702327     0.05600
C3329       C  0.67260516  0.76765649  0.20914712    -0.20200
C3330       C  0.68764846  0.75258163  0.19542471    -0.06700
C3331       C  0.68985763  0.75709877  0.17048319     0.14100
C3332       C  0.67838404  0.77720999  0.16055275    -0.20200
C3333       C  0.66399276  0.79247132  0.17445645    -0.06700
C3334       C  0.66041171  0.78720585  0.19886878     0.14100
C3335       C  0.64311385  0.80166145  0.21382905    -0.23600
H3336       H  0.67021328  0.76409153  0.22805103     0.15400
H3337       H  0.68030824  0.78092483  0.14160402     0.15400
C3338       C  0.70308292  0.74035502  0.15376045    -0.23500
H3339       H  0.64185977  0.79467015  0.23238795     0.05700
H3340       H  0.62482339  0.80076582  0.20564459     0.08900
H3341       H  0.64910957  0.82072853  0.21486879     0.08900
H3342       H  0.69594922  0.72172830  0.15561167     0.08900
H3343       H  0.72267245  0.74077998  0.15766514     0.08900
H3344       H  0.70080713  0.74561735  0.13471770     0.05600
C3345       C  0.04312826  0.31518673  0.82678912    -0.20200
C3346       C  0.03653580  0.32374628  0.80396995    -0.06700
C3347       C  0.04983135  0.34330872  0.79410577     0.14100
C3348       C  0.07007431  0.35234322  0.80652132    -0.20200
C3349       C  0.07710358  0.34276384  0.82857394    -0.06700
C3350       C  0.06311574  0.32452805  0.83919040     0.14100
C3351       C  0.06938219  0.31489809  0.86361954    -0.23600
H3352       H  0.03301585  0.30056086  0.83478941     0.15400
H3353       H  0.08040695  0.36718108  0.79917214     0.15400
C3354       C  0.04333955  0.35471855  0.77050179    -0.23500
H3355       H  0.05673372  0.30041535  0.86920812     0.05700
H3356       H  0.06851731  0.32961446  0.87714870     0.08900
H3357       H  0.08789680  0.30738102  0.86341039     0.08900
H3358       H  0.02445938  0.36127948  0.77107496     0.08900
H3359       H  0.04553337  0.34153765  0.75564652     0.08900
H3360       H  0.05511840  0.37042793  0.76647869     0.05600
C3361       C  0.67679660  0.41488474  0.81183374    -0.20200
C3362       C  0.65932489  0.42705206  0.82543968    -0.06700
C3363       C  0.66003862  0.45244939  0.82696219     0.14100
C3364       C  0.67731728  0.46504400  0.81376949    -0.20200
C3365       C  0.69422793  0.45300701  0.79946829    -0.06700
C3366       C  0.69431385  0.42762020  0.79878653     0.14100
C3367       C  0.71205462  0.41407274  0.78352181    -0.23600
H3368       H  0.67641064  0.39537093  0.81113041     0.15400
H3369       H  0.67723115  0.48458679  0.81418349     0.15400
C3370       C  0.64294327  0.46688630  0.84224937    -0.23500
H3371       H  0.70933162  0.39428398  0.78477376     0.05700
H3372       H  0.73072862  0.41833273  0.78953300     0.08900
H3373       H  0.70989956  0.41930101  0.76446404     0.08900
H3374       H  0.63037754  0.45558037  0.85275829     0.08900
H3375       H  0.63209248  0.47890972  0.83065450     0.08900
H3376       H  0.65346323  0.47810465  0.85516330     0.05600
C3377       C  0.29581269  0.51931592  0.92330875    -0.20200
C3378       C  0.29915403  0.51723382  0.94820989    -0.06700
C3379       C  0.31330857  0.53498788  0.96032988     0.14100
C3380       C  0.32489726  0.55308216  0.94699618    -0.20200
C3381       C  0.32215030  0.55443157  0.92204926    -0.06700
C3382       C  0.30680246  0.53775363  0.91018483     0.14100
C3383       C  0.30151424  0.53887472  0.88368067    -0.23600
H3384       H  0.28476128  0.50621513  0.91375289     0.15400
H3385       H  0.33634600  0.56621592  0.95603521     0.15400
C3386       C  0.31566916  0.53575808  0.98725267    -0.23500
H3387       H  0.30808942  0.52222501  0.87480066     0.05700
H3388       H  0.30997865  0.55457468  0.87482260     0.08900
H3389       H  0.28172519  0.54022362  0.88083134     0.08900
H3390       H  0.32597256  0.52010887  0.99377207     0.08900
H3391       H  0.29748009  0.53588499  0.99550804     0.08900
H3392       H  0.32545020  0.55217360  0.99350033     0.05600
C3393       C  0.23817083  0.42569653  0.94979278    -0.20200
C3394       C  0.23923422  0.45093911  0.94778636    -0.06700
C3395       C  0.22118260  0.46267210  0.93401770     0.14100
C3396       C  0.20296036  0.44887796  0.92276439    -0.20200
C3397       C  0.20224057  0.42371935  0.92462820    -0.06700
C3398       C  0.22004085  0.41198566  0.93841631     0.14100
C3399       C  0.22048272  0.38504216  0.94154829    -0.23600
H3400       H  0.25184933  0.41639700  0.96007129     0.15400
H3401       H  0.18928678  0.45773020  0.91208061     0.15400
C3402       C  0.22052795  0.48966283  0.93125084    -0.23500
H3403       H  0.21983489  0.38072395  0.96093118     0.05700
H3404       H  0.23743005  0.37776614  0.93390485     0.08900
H3405       H  0.20506720  0.37570184  0.93275244     0.08900
H3406       H  0.23634402  0.49591271  0.92082639     0.08900
H3407       H  0.22042531  0.49848363  0.94916042     0.08900
H3408       H  0.20414038  0.49557725  0.92143632     0.05600
C3409       C  0.28999103  0.44221062  0.02773371    -0.20200
C3410       C  0.30332300  0.45397575  0.00984417    -0.06700
C3411       C  0.32888831  0.45361878  0.01115962     0.14100
C3412       C  0.34022303  0.44270334  0.03076135    -0.20200
C3413       C  0.32697590  0.43085864  0.04853560    -0.06700
C3414       C  0.30145082  0.43029384  0.04680339     0.14100
C3415       C  0.28576921  0.41667117  0.06414793    -0.23600
H3416       H  0.27045055  0.44192668  0.02661906     0.15400
H3417       H  0.35976332  0.44262851  0.03184980     0.15400
C3418       C  0.34456704  0.46309402  0.99125767    -0.23500
H3419       H  0.27457699  0.40329195  0.05415926     0.05700
H3420       H  0.27366183  0.42943688  0.07356344     0.08900
H3421       H  0.29621856  0.40669177  0.07776614     0.08900
H3422       H  0.34316604  0.48290104  0.99010294     0.08900
H3423       H  0.33906104  0.45470874  0.97394257     0.08900
H3424       H  0.36391305  0.45889424  0.99424571     0.05600
C3425       C  0.53426838  0.44678722  0.82587049    -0.20200
C3426       C  0.53370591  0.42162663  0.82839956    -0.06700
C3427       C  0.51410718  0.40846804  0.81834894     0.14100
C3428       C  0.49514982  0.42089465  0.80725373    -0.20200
C3429       C  0.49554864  0.44607731  0.80504428    -0.06700
C3430       C  0.51593505  0.45905673  0.81360910     0.14100
C3431       C  0.51975123  0.48548914  0.80895767    -0.23600
H3432       H  0.54952271  0.45689770  0.83299881     0.15400
H3433       H  0.47985116  0.41075130  0.80026176     0.15400
C3434       C  0.51269290  0.38134119  0.81860964    -0.23500
H3435       H  0.53746516  0.48819361  0.80010284     0.05700
H3436       H  0.51976381  0.49560905  0.82617369     0.08900
H3437       H  0.50596680  0.49308533  0.79682502     0.08900
H3438       H  0.49676023  0.37555502  0.82915667     0.08900
H3439       H  0.52896585  0.37283077  0.82631125     0.08900
H3440       H  0.51068869  0.37447481  0.79996948     0.05600
C3441       C  0.40597891  0.51021949  0.80502162    -0.20200
C3442       C  0.43111924  0.50766843  0.80785902    -0.06700
C3443       C  0.44372404  0.52499950  0.82215804     0.14100
C3444       C  0.43096688  0.54395597  0.83303406    -0.20200
C3445       C  0.40597761  0.54621984  0.83022515    -0.06700
C3446       C  0.39331219  0.52915123  0.81607273     0.14100
C3447       C  0.36644483  0.53108419  0.81243621    -0.23600
H3448       H  0.39604795  0.49715824  0.79429406     0.15400
H3449       H  0.44053383  0.55719026  0.84390380     0.15400
C3450       C  0.47067526  0.52437699  0.82560022    -0.23500
H3451       H  0.35937052  0.51658697  0.80048022     0.05700
H3452       H  0.36211157  0.54869638  0.80420583     0.08900
H3453       H  0.35706908  0.52963059  0.82990078     0.08900
H3454       H  0.47965380  0.52476972  0.80788551     0.08900
H3455       H  0.47586768  0.50802530  0.83564484     0.08900
H3456       H  0.47740573  0.54013482  0.83607853     0.05600
C3457       C  0.44192976  0.42392684  0.73465880    -0.20200
C3458       C  0.43360525  0.44694413  0.74152139    -0.06700
C3459       C  0.41565590  0.45798742  0.72698566     0.14100
C3460       C  0.40608348  0.44537264  0.70706165    -0.20200
C3461       C  0.41383122  0.42211874  0.70116250    -0.06700
C3462       C  0.43227716  0.41147691  0.71481918     0.14100
C3463       C  0.44152788  0.38675229  0.70860296    -0.23600
H3464       H  0.45575356  0.41516822  0.74518551     0.15400
H3465       H  0.39182113  0.45333538  0.69644052     0.15400
C3466       C  0.40630622  0.48293665  0.73201516    -0.23500
H3467       H  0.45624630  0.38111961  0.72088053     0.05700
H3468       H  0.44869527  0.38673305  0.69005410     0.08900
H3469       H  0.42669427  0.37330102  0.70985462     0.08900
H3470       H  0.42152551  0.49603326  0.73245591     0.08900
H3471       H  0.39652828  0.48323542  0.74931300     0.08900
H3472       H  0.39342407  0.48892148  0.71799062     0.05600
C3473       C  0.52326023  0.32485239  0.90806885    -0.20200
C3474       C  0.53957382  0.33913625  0.92119224    -0.06700
C3475       C  0.53703282  0.34080657  0.94636582     0.14100
C3476       C  0.51803136  0.32835805  0.95762411    -0.20200
C3477       C  0.50139260  0.31420875  0.94447207    -0.06700
C3478       C  0.50430536  0.31237342  0.91921241     0.14100
C3479       C  0.48721076  0.29806566  0.90348729    -0.23600
H3480       H  0.52530267  0.32368557  0.88877976     0.15400
H3481       H  0.51612452  0.32990138  0.97689798     0.15400
C3482       C  0.55362846  0.35594878  0.96182515    -0.23500
H3483       H  0.49133722  0.30023627  0.88415876     0.05700
H3484       H  0.46840737  0.30421145  0.90634191     0.08900
H3485       H  0.48879794  0.27861052  0.90754380     0.08900
H3486       H  0.56745362  0.36579611  0.95140936     0.08900
H3487       H  0.56305355  0.34422809  0.97486619     0.08900
H3488       H  0.54290224  0.36949279  0.97181407     0.05600
C3489       C  0.44549614  0.34150028  0.01250848    -0.20200
C3490       C  0.43929084  0.31708009  0.00847052    -0.06700
C3491       C  0.42207246  0.30631850  0.02411437     0.14100
C3492       C  0.41162134  0.32011861  0.04252750    -0.20200
C3493       C  0.41765246  0.34435747  0.04604734    -0.06700
C3494       C  0.43487962  0.35517558  0.03097783     0.14100
C3495       C  0.44210055  0.38115006  0.03450319    -0.23600
H3496       H  0.45854540  0.35018246  0.00098092     0.15400
H3497       H  0.39841552  0.31199219  0.05431070     0.15400
C3498       C  0.41472819  0.28024142  0.02232026    -0.23500
H3499       H  0.45601758  0.38684850  0.02141374     0.05700
H3500       H  0.44960037  0.38378146  0.05282498     0.08900
H3501       H  0.42611924  0.39287964  0.03220102     0.08900
H3502       H  0.43092721  0.26884674  0.02440518     0.08900
H3503       H  0.40550361  0.27664808  0.00497315     0.08900
H3504       H  0.40189629  0.27502280  0.03664114     0.05600
C3505       C  0.43979642  0.24741237  0.92399768    -0.20200
C3506       C  0.44011084  0.24952196  0.94912762    -0.06700
C3507       C  0.42903081  0.23105321  0.96276035     0.14100
C3508       C  0.41598365  0.21262014  0.95099740    -0.20200
C3509       C  0.41535032  0.21089483  0.92590930    -0.06700
C3510       C  0.42812923  0.22811707  0.91227990     0.14100
C3511       C  0.43003984  0.22592991  0.88539050    -0.23600
H3512       H  0.44850641  0.26112050  0.91332614     0.15400
H3513       H  0.40687972  0.19897489  0.96150196     0.15400
C3514       C  0.43195153  0.22906730  0.98947567    -0.23500
H3515       H  0.44194757  0.24010301  0.87782009     0.05700
H3516       H  0.41207353  0.22777441  0.87684413     0.08900
H3517       H  0.43774264  0.20814252  0.88056383     0.08900
H3518       H  0.41431197  0.23197549  0.99833798     0.08900
H3519       H  0.44560921  0.24176935  0.99675022     0.08900
H3520       H  0.43842194  0.21074538  0.99398061     0.05600
C3521       C  0.33146236  0.24618717  0.81161760    -0.20200
C3522       C  0.30618338  0.24828677  0.81228962    -0.06700
C3523       C  0.29258346  0.22989992  0.82365576     0.14100
C3524       C  0.30463291  0.21105707  0.83536658    -0.20200
C3525       C  0.32988837  0.20964914  0.83557807    -0.06700
C3526       C  0.34343593  0.22708830  0.82297836     0.14100
C3527       C  0.37051196  0.22539067  0.82120034    -0.23600
H3528       H  0.34200020  0.25983589  0.80252962     0.15400
H3529       H  0.29429766  0.19736107  0.84461250     0.15400
C3530       C  0.26539745  0.22932552  0.82274779    -0.23500
H3531       H  0.37815997  0.23990662  0.80987403     0.05700
H3532       H  0.37548923  0.20780869  0.81308224     0.08900
H3533       H  0.37890055  0.22701047  0.83921464     0.08900
H3534       H  0.25915411  0.23022702  0.80384200     0.08900
H3535       H  0.25786431  0.24456888  0.83309840     0.08900
H3536       H  0.25799311  0.21251333  0.83059667     0.05600
C3537       C  0.30621423  0.33821200  0.71487154    -0.20200
C3538       C  0.32893999  0.32996175  0.70792430    -0.06700
C3539       C  0.34019521  0.31175089  0.72129822     0.14100
C3540       C  0.32848942  0.30225926  0.74149033    -0.20200
C3541       C  0.30576350  0.31073703  0.74905927    -0.06700
C3542       C  0.29450796  0.32912242  0.73526026     0.14100
C3543       C  0.27026283  0.33957937  0.74149365    -0.23600
H3544       H  0.29788337  0.35239988  0.70451972     0.15400
H3545       H  0.33750165  0.28836508  0.75163387     0.15400
C3546       C  0.36472631  0.30257395  0.71435627    -0.23500
H3547       H  0.26426958  0.35310665  0.72818872     0.05700
H3548       H  0.27125582  0.34892934  0.75911417     0.08900
H3549       H  0.25639951  0.32507640  0.74178894     0.08900
H3550       H  0.37805247  0.31758659  0.71489921     0.08900
H3551       H  0.36397964  0.29491843  0.69593728     0.08900
H3552       H  0.37108506  0.28829292  0.72666757     0.05600
C3553       C  0.22810294  0.32528283  0.79900575    -0.20200
C3554       C  0.24441306  0.31273268  0.81370187    -0.06700
C3555       C  0.24057758  0.31295975  0.83884060     0.14100
C3556       C  0.22046204  0.32505180  0.84827396    -0.20200
C3557       C  0.20433870  0.33768493  0.83357301    -0.06700
C3558       C  0.20848011  0.33805707  0.80856086     0.14100
C3559       C  0.19319766  0.35237209  0.79145219    -0.23600
H3560       H  0.23087227  0.32552578  0.77980137     0.15400
H3561       H  0.21753472  0.32516610  0.86747083     0.15400
C3562       C  0.25812349  0.30171245  0.85612842    -0.23500
H3563       H  0.18433800  0.33997428  0.77838218     0.05700
H3564       H  0.20484688  0.36521707  0.78155416     0.08900
H3565       H  0.17905111  0.36302216  0.80051509     0.08900
H3566       H  0.27652015  0.30912301  0.85316738     0.08900
H3567       H  0.25819675  0.28189970  0.85377867     0.08900
H3568       H  0.25322783  0.30545125  0.87506445     0.05600
C3569       C  0.82077576  0.20922737  0.08621356    -0.20200
C3570       C  0.82272922  0.18441673  0.08221987    -0.06700
C3571       C  0.80540552  0.17228621  0.06775226     0.14100
C3572       C  0.78747628  0.18567299  0.05623213    -0.20200
C3573       C  0.78672486  0.21073847  0.05872983    -0.06700
C3574       C  0.80300106  0.22260247  0.07451097     0.14100
C3575       C  0.80205906  0.24951019  0.07841360    -0.23600
H3576       H  0.83364769  0.21820133  0.09798182     0.15400
H3577       H  0.77525878  0.17672492  0.04376416     0.15400
C3578       C  0.80593023  0.14548389  0.06324041    -0.23500
H3579       H  0.81555103  0.25567567  0.09193782     0.05700
H3580       H  0.78386908  0.25461867  0.08488923     0.08900
H3581       H  0.80588608  0.25912989  0.06147603     0.08900
H3582       H  0.82113749  0.13638833  0.07232027     0.08900
H3583       H  0.80762720  0.14195920  0.04371567     0.08900
H3584       H  0.78886427  0.13724070  0.06967878     0.05600
C3585       C  0.69690194  0.17155621  0.92086141    -0.20200
C3586       C  0.67210596  0.17595661  0.91944454    -0.06700
C3587       C  0.66092301  0.19051627  0.93700821     0.14100
C3588       C  0.67515584  0.20157446  0.95482707    -0.20200
C3589       C  0.70019279  0.19840215  0.95528515    -0.06700
C3590       C  0.71109967  0.18250629  0.93867448     0.14100
C3591       C  0.73777397  0.17719169  0.93901768    -0.23600
H3592       H  0.70523935  0.15969963  0.90783262     0.15400
H3593       H  0.66698552  0.21413143  0.96729845     0.15400
C3594       C  0.63418743  0.19524353  0.93629782    -0.23500
H3595       H  0.74049406  0.15745424  0.94046527     0.05700
H3596       H  0.74729480  0.18581206  0.95438557     0.08900
H3597       H  0.74615782  0.18359638  0.92216340     0.08900
H3598       H  0.62402090  0.17812989  0.93848137     0.08900
H3599       H  0.62924345  0.20347200  0.91889032     0.08900
H3600       H  0.62859062  0.20771061  0.95086590     0.05600
C3601       C  0.65641203  0.33341213  0.04024570    -0.20200
C3602       C  0.65906352  0.33826903  0.06473924    -0.06700
C3603       C  0.67550379  0.32476840  0.07861198     0.14100
C3604       C  0.68989768  0.30740693  0.06732241    -0.20200
C3605       C  0.68798095  0.30332088  0.04261725    -0.06700
C3606       C  0.67079166  0.31609254  0.02898718     0.14100
C3607       C  0.66811867  0.31181616  0.00240043    -0.23600
H3608       H  0.64343537  0.34356729  0.02988461     0.15400
H3609       H  0.70352494  0.29793996  0.07751828     0.15400
C3610       C  0.67846476  0.32936061  0.10511977    -0.23500
H3611       H  0.65384624  0.32326633  0.99444089     0.05700
H3612       H  0.66330273  0.29265913  0.99897824     0.08900
H3613       H  0.68532728  0.31599702  0.99324334     0.08900
H3614       H  0.66125210  0.32553787  0.11449175     0.08900
H3615       H  0.68370923  0.34845367  0.10829916     0.08900
H3616       H  0.69259905  0.31774716  0.11307431     0.05600
C3617       C  0.67902760  0.32446426  0.90133656    -0.20200
C3618       C  0.66623218  0.34179121  0.91433610    -0.06700
C3619       C  0.67445859  0.34894296  0.93720168     0.14100
C3620       C  0.69534303  0.33844591  0.94667586    -0.20200
C3621       C  0.70780554  0.32019096  0.93425905    -0.06700
C3622       C  0.69947165  0.31324139  0.91105562     0.14100
C3623       C  0.71182311  0.29419466  0.89620167    -0.23600
H3624       H  0.67275045  0.31954430  0.88352726     0.15400
H3625       H  0.70135876  0.34396537  0.96437828     0.15400
C3626       C  0.66110946  0.36760748  0.95159236    -0.23500
H3627       H  0.70403709  0.29287114  0.87786000     0.05700
H3628       H  0.70953407  0.27624583  0.90454212     0.08900
H3629       H  0.73129408  0.29862736  0.89443905     0.08900
H3630       H  0.64237307  0.36130164  0.95489782     0.08900
H3631       H  0.66056948  0.38483741  0.94163379     0.08900
H3632       H  0.66987454  0.37106434  0.96922915     0.05600
C3633       C  0.81546397  0.34028724  0.07704522    -0.20200
C3634       C  0.83929800  0.33312312  0.08064617    -0.06700
C3635       C  0.85043827  0.31774234  0.06389980     0.14100
C3636       C  0.83746737  0.31013354  0.04354887    -0.20200
C3637       C  0.81352642  0.31753717  0.03953135    -0.06700
C3638       C  0.80232673  0.33271920  0.05684192     0.14100
C3639       C  0.77639103  0.34067351  0.05487195    -0.23600
H3640       H  0.80734319  0.35247199  0.08991029     0.15400
H3641       H  0.84601047  0.29805568  0.03087758     0.15400
C3642       C  0.87598940  0.30939617  0.06762106    -0.23500
H3643       H  0.77093301  0.35209825  0.07031257     0.05700
H3644       H  0.76420013  0.32472308  0.05455459     0.08900
H3645       H  0.77384464  0.35151699  0.03842519     0.08900
H3646       H  0.87734527  0.29967121  0.08489509     0.08900
H3647       H  0.88848926  0.32508988  0.06799709     0.08900
H3648       H  0.88185796  0.29702793  0.05308066     0.05600
C3649       C  0.78663562  0.07079961  0.16792641    -0.20200
C3650       C  0.78442282  0.07551111  0.19259908    -0.06700
C3651       C  0.80028518  0.09256763  0.20366211     0.14100
C3652       C  0.81899830  0.10255692  0.19018982    -0.20200
C3653       C  0.82205221  0.09635046  0.16612893    -0.06700
C3654       C  0.80524141  0.08103786  0.15453098     0.14100
C3655       C  0.80669235  0.07475210  0.12825106    -0.23600
H3656       H  0.77440795  0.05817156  0.15917250     0.15400
H3657       H  0.83155219  0.11519330  0.19846360     0.15400
C3658       C  0.79848243  0.09996187  0.22968280    -0.23500
H3659       H  0.78994039  0.08064741  0.11907103     0.05700
H3660       H  0.80845466  0.05494716  0.12609280     0.08900
H3661       H  0.82223065  0.08335048  0.11917304     0.08900
H3662       H  0.80170633  0.08428844  0.24145327     0.08900
H3663       H  0.78039314  0.10765497  0.23323539     0.08900
H3664       H  0.81208198  0.11393952  0.23462081     0.05600
C3665       C  0.70123414  0.08599935  0.30784858    -0.20200
C3666       C  0.69016961  0.06625745  0.29600159    -0.06700
C3667       C  0.66647788  0.05921264  0.30286305     0.14100
C3668       C  0.65503615  0.07175048  0.32144959    -0.20200
C3669       C  0.66662954  0.09071857  0.33352135    -0.06700
C3670       C  0.68983572  0.09812643  0.32661697     0.14100
C3671       C  0.70251781  0.11880681  0.33909326    -0.23600
H3672       H  0.71925252  0.09172314  0.30291607     0.15400
H3673       H  0.63692574  0.06668073  0.32679787     0.15400
C3674       C  0.65299629  0.03853199  0.29118627    -0.23500
H3675       H  0.72070382  0.12221590  0.33149643     0.05700
H3676       H  0.70470208  0.11470736  0.35842235     0.08900
H3677       H  0.69178490  0.13549863  0.33716302     0.08900
H3678       H  0.66251646  0.02135186  0.29459635     0.08900
H3679       H  0.65132954  0.04165162  0.27162090     0.08900
H3680       H  0.63445476  0.03651958  0.29842142     0.05600
C3681       C  0.66060847  0.92975133  0.19402499    -0.20200
C3682       C  0.67188582  0.91918241  0.17424821    -0.06700
C3683       C  0.69291394  0.92966622  0.16475948     0.14100
C3684       C  0.70219792  0.95074038  0.17525970    -0.20200
C3685       C  0.69083352  0.96183199  0.19498026    -0.06700
C3686       C  0.66951753  0.95110332  0.20437924     0.14100
C3687       C  0.65551865  0.96201805  0.22484233    -0.23600
H3688       H  0.64405481  0.92174552  0.20064777     0.15400
H3689       H  0.71874181  0.95829170  0.16815996     0.15400
C3690       C  0.70538493  0.91870425  0.14339371    -0.23500
H3691       H  0.63824013  0.95230530  0.22795583     0.05700
H3692       H  0.65108208  0.98103246  0.22074676     0.08900
H3693       H  0.66607906  0.96099532  0.24173719     0.08900
H3694       H  0.69291643  0.91829380  0.12776759     0.08900
H3695       H  0.71101657  0.90004797  0.14760774     0.08900
H3696       H  0.72173953  0.92911380  0.13830608     0.05600
C3697       C  0.81067759  0.04825872  0.32736949    -0.20200
C3698       C  0.81639162  0.04277654  0.30353934    -0.06700
C3699       C  0.83504495  0.05568034  0.29203762     0.14100
C3700       C  0.84617371  0.07515195  0.30394056    -0.20200
C3701       C  0.83909149  0.08180643  0.32710694    -0.06700
C3702       C  0.82195527  0.06758123  0.33937887     0.14100
C3703       C  0.81487356  0.07342182  0.36478118    -0.23600
H3704       H  0.79602039  0.03863293  0.33594271     0.15400
H3705       H  0.86009908  0.08551270  0.29504154     0.15400
C3706       C  0.84256709  0.04931237  0.26686982    -0.23500
H3707       H  0.80083035  0.06082724  0.37148404     0.05700
H3708       H  0.80761688  0.09199297  0.36575286     0.08900
H3709       H  0.83084839  0.07206759  0.37675246     0.08900
H3710       H  0.82714242  0.05123105  0.25431271     0.08900
H3711       H  0.84888751  0.03037943  0.26631764     0.08900
H3712       H  0.85746854  0.06110245  0.26054791     0.05600
C3713       C  0.05407186  0.91592345  0.42596253    -0.20200
C3714       C  0.06998474  0.92955727  0.41184083    -0.06700
C3715       C  0.06538110  0.95421652  0.40822779     0.14100
C3716       C  0.04612330  0.96508330  0.42032496    -0.20200
C3717       C  0.03150185  0.95197505  0.43616419    -0.06700
C3718       C  0.03496093  0.92694892  0.43836097     0.14100
C3719       C  0.01924176  0.91221501  0.45466946    -0.23600
H3720       H  0.05717152  0.89678449  0.42794952     0.15400
H3721       H  0.04339849  0.98431412  0.41863707     0.15400
C3722       C  0.08100962  0.96911840  0.39192106    -0.23500
H3723       H  0.02429044  0.89288933  0.45431520     0.05700
H3724       H  0.00011686  0.91367112  0.44886519     0.08900
H3725       H  0.02101820  0.91890140  0.47339163     0.08900
H3726       H  0.08056284  0.96133270  0.37354432     0.08900
H3727       H  0.09989312  0.96934870  0.39862477     0.08900
H3728       H  0.07473626  0.98805017  0.39093189     0.05600
C3729       C  0.44657238  0.84572707  0.50096874    -0.20200
C3730       C  0.43773119  0.82266543  0.49433376    -0.06700
C3731       C  0.41815916  0.81293421  0.50776282     0.14100
C3732       C  0.40843713  0.82626154  0.52694238    -0.20200
C3733       C  0.41739247  0.84906231  0.53320882    -0.06700
C3734       C  0.43666182  0.85893089  0.52010267     0.14100
C3735       C  0.44676217  0.88342482  0.52639203    -0.23600
H3736       H  0.46134094  0.85371880  0.49110171     0.15400
H3737       H  0.39351722  0.81894084  0.53713453     0.15400
C3738       C  0.40734223  0.78849728  0.50263265    -0.23500
H3739       H  0.46189672  0.88857278  0.51445250     0.05700
H3740       H  0.45359260  0.88342236  0.54512693     0.08900
H3741       H  0.43243076  0.89719766  0.52466086     0.08900
H3742       H  0.42138382  0.77459030  0.50489290     0.08900
H3743       H  0.39964493  0.78788851  0.48424639     0.08900
H3744       H  0.39247028  0.78403210  0.51515432     0.05600
C3745       C  0.30401619  0.93236842  0.53633255    -0.20200
C3746       C  0.32863604  0.93766486  0.53903040    -0.06700
C3747       C  0.33960790  0.95435630  0.52355496     0.14100
C3748       C  0.32601862  0.96442344  0.50492697    -0.20200
C3749       C  0.30143842  0.95859300  0.50140288    -0.06700
C3750       C  0.29016234  0.94272953  0.51791871     0.14100
C3751       C  0.26357839  0.93691637  0.51691399    -0.23600
H3752       H  0.29570900  0.91972272  0.54855492     0.15400
H3753       H  0.33496348  0.97666071  0.49277531     0.15400
C3754       C  0.36567669  0.96162764  0.52676749    -0.23500
H3755       H  0.25779907  0.92588344  0.53242412     0.05700
H3756       H  0.25926450  0.92637399  0.50056051     0.08900
H3757       H  0.25297020  0.95380827  0.51722033     0.08900
H3758       H  0.37751967  0.94575092  0.52449369     0.08900
H3759       H  0.36841010  0.96936110  0.54498541     0.08900
H3760       H  0.37127397  0.97538587  0.51351007     0.05600
C3761       C  0.29778784  0.02168749  0.41251067    -0.20200
C3762       C  0.30082173  0.01943119  0.43746476    -0.06700
C3763       C  0.31626891  0.03609472  0.44958881     0.14100
C3764       C  0.32915977  0.05328249  0.43631968    -0.20200
C3765       C  0.32667282  0.05487932  0.41138171    -0.06700
C3766       C  0.31036467  0.03925295  0.39939771     0.14100
C3767       C  0.30590659  0.04133986  0.37284115    -0.23600
H3768       H  0.28582263  0.00935673  0.40304467     0.15400
H3769       H  0.34128224  0.06572664  0.44546050     0.15400
C3770       C  0.31884608  0.03664632  0.47651302    -0.23500
H3771       H  0.29195073  0.02832011  0.36648733     0.05700
H3772       H  0.32272930  0.03767812  0.36281260     0.08900
H3773       H  0.29958623  0.05977812  0.36863466     0.08900
H3774       H  0.32842650  0.02040222  0.48282196     0.08900
H3775       H  0.30075931  0.03775161  0.48492420     0.08900
H3776       H  0.32952168  0.05249767  0.48276694     0.05600
C3777       C  0.21575243  0.92091908  0.42461822    -0.20200
C3778       C  0.19699730  0.93507280  0.41548077    -0.06700
C3779       C  0.19849251  0.96042815  0.41785774     0.14100
C3780       C  0.21839757  0.97081499  0.42994638    -0.20200
C3781       C  0.23722953  0.95658336  0.43900050    -0.06700
C3782       C  0.23611878  0.93129703  0.43563251     0.14100
C3783       C  0.25705158  0.91520866  0.44176368    -0.23600
H3784       H  0.21489055  0.90154703  0.42210605     0.15400
H3785       H  0.21950296  0.99022233  0.43194821     0.15400
C3786       C  0.17996331  0.97664149  0.40658280    -0.23500
H3787       H  0.25385556  0.89634966  0.43572103     0.05700
H3788       H  0.25996483  0.91478971  0.46135130     0.08900
H3789       H  0.27364412  0.92183911  0.43280525     0.08900
H3790       H  0.16205743  0.97389762  0.41487937     0.08900
H3791       H  0.17865867  0.97277924  0.38707477     0.08900
H3792       H  0.18481852  0.99595507  0.40891236     0.05600
C3793       C  0.68182142  0.91690897  0.30240723    -0.20200
C3794       C  0.67265977  0.92494567  0.32437776    -0.06700
C3795       C  0.68426561  0.94400321  0.33680554     0.14100
C3796       C  0.70443835  0.95519735  0.32657110    -0.20200
C3797       C  0.71313289  0.94776044  0.30421045    -0.06700
C3798       C  0.70187837  0.92824185  0.29208438     0.14100
C3799       C  0.71026122  0.92029063  0.26761704    -0.23600
H3800       H  0.67298723  0.90200941  0.29320212     0.15400
H3801       H  0.71240121  0.97090334  0.33521801     0.15400
C3802       C  0.67483849  0.95298831  0.36048823    -0.23500
H3803       H  0.69958331  0.90470718  0.26072440     0.05700
H3804       H  0.72949484  0.91489229  0.26858922     0.08900
H3805       H  0.70834416  0.93524009  0.25463393     0.08900
H3806       H  0.67507195  0.93818849  0.37376347     0.08900
H3807       H  0.65605546  0.95946883  0.35825225     0.08900
H3808       H  0.68593616  0.96811895  0.36771468     0.05600
C3809       C  0.53859410  0.82050257  0.40816608    -0.20200
C3810       C  0.54248681  0.84505121  0.41282309    -0.06700
C3811       C  0.52724911  0.85711675  0.42908815     0.14100
C3812       C  0.50773372  0.84466121  0.43926176    -0.20200
C3813       C  0.50304696  0.82018054  0.43402300    -0.06700
C3814       C  0.51931043  0.80780639  0.41863295     0.14100
C3815       C  0.51706944  0.78121756  0.41331021    -0.23600
H3816       H  0.55065214  0.81129174  0.39596330     0.15400
H3817       H  0.49593928  0.85443918  0.45126861     0.15400
C3818       C  0.53114948  0.88308682  0.43622551    -0.23500
H3819       H  0.53244744  0.77452157  0.40249826     0.05700
H3820       H  0.50039125  0.77748208  0.40283120     0.08900
H3821       H  0.51687448  0.77094696  0.43031635     0.08900
H3822       H  0.54728773  0.89126778  0.42781085     0.08900
H3823       H  0.53359716  0.88434285  0.45595713     0.08900
H3824       H  0.51514111  0.89379817  0.43099894     0.05600
C3825       C  0.51225831  0.96105891  0.32252592    -0.20200
C3826       C  0.50869250  0.95689831  0.29782143    -0.06700
C3827       C  0.52520261  0.94154978  0.28566169     0.14100
C3828       C  0.54336823  0.92977958  0.29878228    -0.20200
C3829       C  0.54592423  0.93308066  0.32359243    -0.06700
C3830       C  0.53060223  0.94946189  0.33546145     0.14100
C3831       C  0.53368353  0.95489790  0.36179236    -0.23600
H3832       H  0.50023328  0.97302807  0.33206795     0.15400
H3833       H  0.55554208  0.91758565  0.28968811     0.15400
C3834       C  0.52436856  0.93758792  0.25889648    -0.23500
H3835       H  0.52080699  0.96881813  0.36804324     0.05700
H3836       H  0.55226790  0.96167516  0.36527680     0.08900
H3837       H  0.53050016  0.93843042  0.37248089     0.08900
H3838       H  0.52481489  0.95519244  0.24957384     0.08900
H3839       H  0.50788827  0.92733232  0.25376054     0.08900
H3840       H  0.54003723  0.92698198  0.25250529     0.05600
C3841       C  0.44867219  0.92928331  0.23282229    -0.20200
C3842       C  0.44600583  0.95443394  0.23459418    -0.06700
C3843       C  0.43154917  0.96632586  0.21728975     0.14100
C3844       C  0.41866554  0.95259601  0.20025382    -0.20200
C3845       C  0.42074463  0.92748139  0.19918944    -0.06700
C3846       C  0.43637675  0.91573116  0.21525518     0.14100
C3847       C  0.44009791  0.88889943  0.21383188    -0.23600
H3848       H  0.45991130  0.91999817  0.24569019     0.15400
H3849       H  0.40717521  0.96159099  0.18737204     0.15400
C3850       C  0.43000644  0.99333895  0.21528675    -0.23500
H3851       H  0.45338026  0.88267493  0.22737066     0.05700
H3852       H  0.44694149  0.88395110  0.19580034     0.08900
H3853       H  0.42279749  0.87931364  0.21704363     0.08900
H3854       H  0.44283050  0.00308148  0.22715386     0.08900
H3855       H  0.41134307  0.99925661  0.21925315     0.08900
H3856       H  0.43451553  0.99873470  0.19669775     0.05600
C3857       C  0.40469346  0.03830766  0.30920911    -0.20200
C3858       C  0.41782278  0.05339041  0.32477056    -0.06700
C3859       C  0.44259416  0.04892297  0.32853152     0.14100
C3860       C  0.45384118  0.03009031  0.31591633    -0.20200
C3861       C  0.44089166  0.01501949  0.29994975    -0.06700
C3862       C  0.41567813  0.01902940  0.29701956     0.14100
C3863       C  0.39974952  0.00271479  0.28200580    -0.23600
H3864       H  0.38553853  0.04147710  0.30691921     0.15400
H3865       H  0.47294370  0.02709216  0.31871213     0.15400
C3866       C  0.45700831  0.06351103  0.34646464    -0.23500
H3867       H  0.38039383  0.00754942  0.28353289     0.05700
H3868       H  0.40161982  0.98379180  0.28803114     0.08900
H3869       H  0.40460205  0.00423971  0.26283936     0.08900
H3870       H  0.44861692  0.06202966  0.36443140     0.08900
H3871       H  0.45754109  0.08270082  0.34110755     0.08900
H3872       H  0.47590645  0.05711017  0.34786542     0.05600
C3873       C  0.41871745  0.71750132  0.43566369    -0.20200
C3874       C  0.41746869  0.71625042  0.41057617    -0.06700
C3875       C  0.42904746  0.73438321  0.39701582     0.14100
C3876       C  0.44021636  0.75396257  0.40887186    -0.20200
C3877       C  0.44071154  0.75572641  0.43402836    -0.06700
C3878       C  0.43084488  0.73649202  0.44752418     0.14100
C3879       C  0.43386351  0.73449989  0.47425136    -0.23600
H3880       H  0.41042644  0.70330775  0.44610693     0.15400
H3881       H  0.44828980  0.76821969  0.39835962     0.15400
C3882       C  0.42996506  0.73298028  0.37003943    -0.23500
H3883       H  0.44192986  0.71678100  0.47858115     0.05700
H3884       H  0.41596984  0.73571804  0.48301775     0.08900
H3885       H  0.44617346  0.74833514  0.48188090     0.08900
H3886       H  0.41155450  0.73393701  0.36228688     0.08900
H3887       H  0.43847020  0.71579658  0.36445096     0.08900
H3888       H  0.44069767  0.74801952  0.36239591     0.05600
C3889       C  0.20291612  0.84233825  0.30520594    -0.20200
C3890       C  0.20321514  0.84525160  0.33020164    -0.06700
C3891       C  0.22201234  0.83453743  0.34357936     0.14100
C3892       C  0.24056005  0.82224206  0.33153982    -0.20200
C3893       C  0.24053680  0.81973518  0.30645485    -0.06700
C3894       C  0.22073029  0.82898504  0.29329964     0.14100
C3895       C  0.21674246  0.82376834  0.26706991    -0.23600
H3896       H  0.18807692  0.84977863  0.29497129     0.15400
H3897       H  0.25535371  0.81478089  0.34180073     0.15400
C3898       C  0.22224942  0.83546155  0.37057910    -0.23500
H3899       H  0.19846017  0.81584876  0.26442511     0.05700
H3900       H  0.22963237  0.81048501  0.25982021     0.08900
H3901       H  0.21792657  0.84074199  0.25674200     0.08900
H3902       H  0.20522260  0.82761507  0.37757130     0.08900
H3903       H  0.22410746  0.85431574  0.37699333     0.08900
H3904       H  0.23752977  0.82509713  0.37816448     0.05600
C3905       C  0.28976127  0.74195250  0.31990218    -0.20200
C3906       C  0.30413831  0.75731727  0.30575698    -0.06700
C3907       C  0.32904340  0.75176053  0.30325632     0.14100
C3908       C  0.33849194  0.73131592  0.31460264    -0.20200
C3909       C  0.32409213  0.71617744  0.32862982    -0.06700
C3910       C  0.29938025  0.72162507  0.33140826     0.14100
C3911       C  0.28280041  0.70680848  0.34685129    -0.23600
H3912       H  0.27076771  0.74585216  0.32219493     0.15400
H3913       H  0.35752172  0.72724105  0.31288566     0.15400
C3914       C  0.34624626  0.76746408  0.28942324    -0.23500
H3915       H  0.27517109  0.71838348  0.36120410     0.05700
H3916       H  0.29201206  0.69150679  0.35556042     0.08900
H3917       H  0.26778818  0.69945377  0.33571738     0.08900
H3918       H  0.34559537  0.78625111  0.29632636     0.08900
H3919       H  0.34150710  0.76683896  0.27010997     0.08900
H3920       H  0.36519746  0.76125763  0.29106783     0.05600
C3921       C  0.32830713  0.81674090  0.23929550    -0.20200
C3922       C  0.30363445  0.82109268  0.24344535    -0.06700
C3923       C  0.29116280  0.83631369  0.22713729     0.14100
C3924       C  0.30369598  0.84682847  0.20788319    -0.20200
C3925       C  0.32828261  0.84256961  0.20421285    -0.06700
C3926       C  0.34065378  0.82712895  0.21994905     0.14100
C3927       C  0.36690309  0.82137438  0.21614057    -0.23600
H3928       H  0.33824798  0.80535623  0.25143669     0.15400
H3929       H  0.29430019  0.85859718  0.19559640     0.15400
C3930       C  0.26458361  0.84123281  0.22918945    -0.23500
H3931       H  0.37371280  0.80844211  0.22963771     0.05700
H3932       H  0.37798159  0.83803897  0.21756429     0.08900
H3933       H  0.36932306  0.81323304  0.19808902     0.08900
H3934       H  0.26084917  0.85125984  0.24600569     0.08900
H3935       H  0.25446619  0.82394843  0.22863359     0.08900
H3936       H  0.25783848  0.85242045  0.21418499     0.05600
C3937       C  0.43570762  0.04459167  0.07350783    -0.20200
C3938       C  0.45241648  0.05977496  0.06189976    -0.06700
C3939       C  0.44705086  0.08462525  0.05996015     0.14100
C3940       C  0.42520536  0.09330445  0.06925848    -0.20200
C3941       C  0.40847773  0.07795961  0.08039807    -0.06700
C3942       C  0.41392584  0.05330842  0.08274013     0.14100
C3943       C  0.39741787  0.03574876  0.09516721    -0.23600
H3944       H  0.43926853  0.02546857  0.07489163     0.15400
H3945       H  0.42125883  0.11237720  0.06827896     0.15400
C3946       C  0.46434253  0.10230625  0.04876272    -0.23500
H3947       H  0.39195455  0.02130683  0.08237379     0.05700
H3948       H  0.38080594  0.04419644  0.10216906     0.08900
H3949       H  0.40709354  0.02751009  0.11049668     0.08900
H3950       H  0.46591128  0.09876413  0.02925426     0.08900
H3951       H  0.48233435  0.10091627  0.05746631     0.08900
H3952       H  0.45810645  0.12116938  0.05091130     0.05600
C3953       C  0.57572226  0.05449619  0.94486141    -0.20200
C3954       C  0.56121194  0.06699618  0.96141259    -0.06700
C3955       C  0.55787109  0.09214999  0.95830160     0.14100
C3956       C  0.56851312  0.10366848  0.93859878    -0.20200
C3957       C  0.58205087  0.09081656  0.92172050    -0.06700
C3958       C  0.58608016  0.06601229  0.92510369     0.14100
C3959       C  0.60127333  0.05115594  0.90830003    -0.23600
H3960       H  0.57838297  0.03527477  0.94675936     0.15400
H3961       H  0.56614929  0.12287219  0.93617863     0.15400
C3962       C  0.54337620  0.10718651  0.97556383    -0.23500
H3963       H  0.61652231  0.04316485  0.91840623     0.05700
H3964       H  0.60896169  0.06172502  0.89336261     0.08900
H3965       H  0.59009768  0.03640501  0.90045013     0.08900
H3966       H  0.55016089  0.10458565  0.99410998     0.08900
H3967       H  0.52398943  0.10220529  0.97442284     0.08900
H3968       H  0.54473082  0.12669509  0.97144769     0.05600
C3969       C  0.58685066  0.95856798  0.05636203    -0.20200
C3970       C  0.56233797  0.96176807  0.06216458    -0.06700
C3971       C  0.55127084  0.94513314  0.07817047     0.14100
C3972       C  0.56491317  0.92625576  0.08769550    -0.20200
C3973       C  0.58909818  0.92309261  0.08158248    -0.06700
C3974       C  0.60030109  0.93942184  0.06585615     0.14100
C3975       C  0.62629006  0.93629229  0.05879680    -0.23600
H3976       H  0.59543109  0.97078465  0.04391235     0.15400
H3977       H  0.55664911  0.91367609  0.10002392     0.15400
C3978       C  0.52489093  0.94616697  0.08476204    -0.23500
H3979       H  0.63222860  0.95035352  0.04600923     0.05700
H3980       H  0.62864709  0.91841301  0.05011130     0.08900
H3981       H  0.63805423  0.93746563  0.07491528     0.08900
H3982       H  0.51351963  0.94438584  0.06840366     0.08900
H3983       H  0.52099580  0.96336461  0.09418199     0.08900
H3984       H  0.51960196  0.93134199  0.09697670     0.05600
C3985       C  0.42284568  0.95737646  0.04837623    -0.20200
C3986       C  0.44223606  0.94615766  0.03681390    -0.06700
C3987       C  0.44861051  0.92247435  0.04315892     0.14100
C3988       C  0.43604037  0.91087058  0.06165920    -0.20200
C3989       C  0.41766747  0.92274368  0.07419184    -0.06700
C3990       C  0.41053112  0.94597984  0.06707201     0.14100
C3991       C  0.39041744  0.95898762  0.07969089    -0.23600
H3992       H  0.41849833  0.97584329  0.04393779     0.15400
H3993       H  0.44101366  0.89279728  0.06688877     0.15400
C3994       C  0.46934237  0.90996104  0.03109005    -0.23500
H3995       H  0.38717818  0.97701867  0.07186248     0.05700
H3996       H  0.39506152  0.96144463  0.09892712     0.08900
H3997       H  0.37342385  0.94840278  0.07812807     0.08900
H3998       H  0.48631073  0.92029273  0.03413521     0.08900
H3999       H  0.46576087  0.90861570  0.01153370     0.08900
H4000       H  0.47193731  0.89147991  0.03810917     0.05600
C4001       C  0.43123857  0.07023929  0.91313596    -0.20200
C4002       C  0.41471027  0.08374063  0.92664298    -0.06700
C4003       C  0.41058645  0.07777216  0.95079144     0.14100
C4004       C  0.42409063  0.05933574  0.96128368    -0.20200
C4005       C  0.44156028  0.04665874  0.94820503    -0.06700
C4006       C  0.44494402  0.05187919  0.92375191     0.14100
C4007       C  0.46377641  0.03895330  0.90928067    -0.23600
H4008       H  0.43390311  0.07460391  0.89442794     0.15400
H4009       H  0.42188773  0.05556961  0.98019709     0.15400
C4010       C  0.39218756  0.09105110  0.96553337    -0.23500
H4011       H  0.46413978  0.04528205  0.89044323     0.05700
H4012       H  0.45984382  0.01932258  0.90912459     0.08900
H4013       H  0.48190486  0.04215130  0.91728461     0.08900
H4014       H  0.37408725  0.08906618  0.95711791     0.08900
H4015       H  0.39703534  0.11044980  0.96663737     0.08900
H4016       H  0.39115251  0.08397803  0.98407742     0.05600
C4017       C  0.09005773  0.81504828  0.18583606    -0.20200
C4018       C  0.07823873  0.82834259  0.16803322    -0.06700
C4019       C  0.05505685  0.82124319  0.16014306     0.14100
C4020       C  0.04363168  0.80174217  0.17113621    -0.20200
C4021       C  0.05461056  0.78951636  0.19015757    -0.06700
C4022       C  0.07828205  0.79583274  0.19728460     0.14100
C4023       C  0.09056100  0.78301007  0.21761676    -0.23600
H4024       H  0.10819252  0.82019782  0.19122265     0.15400
H4025       H  0.02517574  0.79725803  0.16621724     0.15400
C4026       C  0.04213835  0.83468027  0.14057075    -0.23500
H4027       H  0.10901187  0.79023760  0.22097179     0.05700
H4028       H  0.09201391  0.76354487  0.21322362     0.08900
H4029       H  0.07999091  0.78512717  0.23432568     0.08900
H4030       H  0.05278792  0.83390973  0.12379108     0.08900
H4031       H  0.03975962  0.85378717  0.14600154     0.08900
H4032       H  0.02401290  0.82686428  0.13677566     0.05600
C4033       C  0.90489438  0.68435045  0.31087144    -0.20200
C4034       C  0.91505250  0.67706936  0.33253863    -0.06700
C4035       C  0.93440940  0.69012740  0.34269820     0.14100
C4036       C  0.94377450  0.70998668  0.33037577    -0.20200
C4037       C  0.93407985  0.71718283  0.30815071    -0.06700
C4038       C  0.91378592  0.70436121  0.29861599     0.14100
C4039       C  0.90124381  0.71100543  0.27550865    -0.23600
H4040       H  0.88955615  0.67436965  0.30372955     0.15400
H4041       H  0.95921190  0.71946626  0.33790615     0.15400
C4042       C  0.94519506  0.68298107  0.36641198    -0.23500
H4043       H  0.88484728  0.69983931  0.27219209     0.05700
H4044       H  0.91339909  0.70800028  0.26003595     0.08900
H4045       H  0.89540037  0.73008609  0.27630285     0.08900
H4046       H  0.95231672  0.66437691  0.36520687     0.08900
H4047       H  0.93117501  0.68373875  0.38054151     0.08900
H4048       H  0.96028177  0.69513607  0.37182163     0.05600
C4049       C  0.93183706  0.66297144  0.17959141    -0.20200
C4050       C  0.91501229  0.67497590  0.16516211    -0.06700
C4051       C  0.91745816  0.69990344  0.16124720     0.14100
C4052       C  0.93614214  0.71252288  0.17273650    -0.20200
C4053       C  0.95209822  0.70090190  0.18840065    -0.06700
C4054       C  0.95024849  0.67578463  0.19158704     0.14100
C4055       C  0.96674222  0.66282327  0.20862162    -0.23600
H4056       H  0.93004342  0.64369478  0.18203795     0.15400
H4057       H  0.93761211  0.73182960  0.17044481     0.15400
C4058       C  0.90011841  0.71320865  0.14528185    -0.23500
H4059       H  0.96264768  0.64322883  0.20917818     0.05700
H4060       H  0.96465400  0.67026515  0.22701172     0.08900
H4061       H  0.98575251  0.66514799  0.20284681     0.08900
H4062       H  0.88152099  0.71162185  0.15243009     0.08900
H4063       H  0.90059835  0.70547221  0.12689742     0.08900
H4064       H  0.90472318  0.73266683  0.14415828     0.05600
C4065       C  0.07527293  0.84241184  0.30270433    -0.20200
C4066       C  0.07711590  0.84004379  0.32752760    -0.06700
C4067       C  0.05985307  0.82639660  0.34015516     0.14100
C4068       C  0.04080547  0.81549618  0.32750826    -0.20200
C4069       C  0.03859035  0.81812134  0.30260490    -0.06700
C4070       C  0.05628801  0.83157797  0.28996331     0.14100
C4071       C  0.05603055  0.83394207  0.26301890    -0.23600
H4072       H  0.08865366  0.85308662  0.29334450     0.15400
H4073       H  0.02768273  0.80470248  0.33707188     0.15400
C4074       C  0.06172557  0.82312584  0.36688948    -0.23500
H4075       H  0.07206124  0.84393277  0.25636592     0.05700
H4076       H  0.03979099  0.84396658  0.25720136     0.08900
H4077       H  0.05612038  0.81582412  0.25452327     0.08900
H4078       H  0.06023081  0.84076932  0.37618703     0.08900
H4079       H  0.07935438  0.81488923  0.37143470     0.08900
H4080       H  0.04717898  0.81121604  0.37375700     0.05600
C4081       C  0.06741558  0.68625143  0.28372233    -0.20200
C4082       C  0.04410381  0.69317011  0.29016228    -0.06700
C4083       C  0.03412308  0.68354120  0.31140103     0.14100
C4084       C  0.04924881  0.67171017  0.32767756    -0.20200
C4085       C  0.07430541  0.67017550  0.32399741    -0.06700
C4086       C  0.08174630  0.67269411  0.29955327     0.14100
C4087       C  0.10112753  0.65772105  0.28794693    -0.23600
H4088       H  0.07416041  0.69067460  0.26607134     0.15400
H4089       H  0.04133659  0.66408382  0.34360909     0.15400
C4090       C  0.00753229  0.68538408  0.31697207    -0.23500
H4091       H  0.09355370  0.64851096  0.27183099     0.05700
H4092       H  0.10753302  0.64302920  0.29963374     0.08900
H4093       H  0.11630090  0.66933194  0.28198515     0.08900
H4094       H  0.99674324  0.67828154  0.30163990     0.08900
H4095       H  0.00245603  0.70431042  0.32067601     0.08900
H4096       H  0.00261178  0.67479557  0.33306738     0.05600
C4097       C  0.78399289  0.69162709  0.42449734    -0.20200
C4098       C  0.79546223  0.70911863  0.43896597    -0.06700
C4099       C  0.82085383  0.70880469  0.44115553     0.14100
C4100       C  0.83402482  0.69085438  0.42903928    -0.20200
C4101       C  0.82238565  0.67296026  0.41512162    -0.06700
C4102       C  0.79701166  0.67371382  0.41247500     0.14100
C4103       C  0.78295871  0.65599122  0.39720069    -0.23600
H4104       H  0.76445842  0.69153835  0.42308595     0.15400
H4105       H  0.85350005  0.69039947  0.43084013     0.15400
C4106       C  0.83392358  0.72643069  0.45728051    -0.23500
H4107       H  0.77218754  0.66591097  0.38370045     0.05700
H4108       H  0.77048563  0.64550108  0.40871061     0.08900
H4109       H  0.79454330  0.64317817  0.38733483     0.08900
H4110       H  0.82741235  0.72449440  0.47596462     0.08900
H4111       H  0.83059194  0.74508369  0.45111314     0.08900
H4112       H  0.85371660  0.72338534  0.45725781     0.05600
C4113       C  0.70341519  0.83214137  0.43611481    -0.20200
C4114       C  0.70202278  0.80697620  0.43390227    -0.06700
C4115       C  0.68399025  0.79662866  0.41883778     0.14100
C4116       C  0.66766260  0.81160212  0.40680293    -0.20200
C4117       C  0.66828001  0.83663233  0.41000399    -0.06700
C4118       C  0.68655921  0.84708792  0.42457393     0.14100
C4119       C  0.68750476  0.87388255  0.42892614    -0.23600
H4120       H  0.71666893  0.84002792  0.44821478     0.15400
H4121       H  0.65380616  0.80372279  0.39537637     0.15400
C4122       C  0.68156677  0.76969927  0.41573473    -0.23500
H4123       H  0.70233104  0.87899211  0.44145175     0.05700
H4124       H  0.67021036  0.87994728  0.43684699     0.08900
H4125       H  0.69054911  0.88346770  0.41181977     0.08900
H4126       H  0.67666593  0.76118206  0.43296273     0.08900
H4127       H  0.69887829  0.76214348  0.40929246     0.08900
H4128       H  0.66726761  0.76481815  0.40252059     0.05600
C4129       C  0.66650296  0.81513613  0.54179586    -0.20200
C4130       C  0.68287319  0.80100922  0.55506985    -0.06700
C4131       C  0.68720969  0.80697587  0.57950428     0.14100
C4132       C  0.67526806  0.82670855  0.58966227    -0.20200
C4133       C  0.65956794  0.84084688  0.57610124    -0.06700
C4134       C  0.65499084  0.83504739  0.55197207     0.14100
C4135       C  0.63789182  0.84979824  0.53706598    -0.23600
H4136       H  0.66305423  0.81107379  0.52307326     0.15400
H4137       H  0.67820052  0.83128471  0.60837281     0.15400
C4138       C  0.70426964  0.79297970  0.59517789    -0.23500
H4139       H  0.63625452  0.84269370  0.51847160     0.05700
H4140       H  0.64451159  0.86867727  0.53611868     0.08900
H4141       H  0.61967310  0.84957617  0.54525538     0.08900
H4142       H  0.72303025  0.79493715  0.58855519     0.08900
H4143       H  0.69886691  0.77369371  0.59534785     0.08900
H4144       H  0.70416765  0.79960661  0.61400150     0.05600
C4145       C  0.65534057  0.70918464  0.45048461    -0.20200
C4146       C  0.67159624  0.69558869  0.46438663    -0.06700
C4147       C  0.67360535  0.67054832  0.45991042     0.14100
C4148       C  0.66146198  0.66054011  0.44015666    -0.20200
C4149       C  0.64758626  0.67484644  0.42483045    -0.06700
C4150       C  0.64347690  0.69913194  0.43059057     0.14100
C4151       C  0.62700293  0.71447210  0.41560432    -0.23600
H4152       H  0.65313134  0.72824003  0.45406425     0.15400
H4153       H  0.66352791  0.64154840  0.43603047     0.15400
C4154       C  0.68851273  0.65422007  0.47551964    -0.23500
H4155       H  0.62565836  0.73308159  0.42288665     0.05700
H4156       H  0.60861377  0.70644629  0.41523685     0.08900
H4157       H  0.63387626  0.71566797  0.39702061     0.08900
H4158       H  0.68340500  0.65672816  0.49458454     0.08900
H4159       H  0.70803016  0.65796916  0.47320155     0.08900
H4160       H  0.68555094  0.63495032  0.47081272     0.05600
C4161       C  0.80074756  0.70741860  0.57137359    -0.20200
C4162       C  0.78550489  0.69453818  0.55548484    -0.06700
C4163       C  0.79072030  0.66998402  0.55048363     0.14100
C4164       C  0.81132949  0.65955976  0.56068989    -0.20200
C4165       C  0.82682595  0.67285139  0.57571382    -0.06700
C4166       C  0.82123688  0.69686593  0.58155795     0.14100
C4167       C  0.83664483  0.71121343  0.59887979    -0.23600
H4168       H  0.79709541  0.72615871  0.57539213     0.15400
H4169       H  0.81539044  0.64080497  0.55709066     0.15400
C4170       C  0.77470446  0.65437359  0.53482231    -0.23500
H4171       H  0.82938234  0.72957694  0.60190149     0.05700
H4172       H  0.85521786  0.71312098  0.59178179     0.08900
H4173       H  0.83734036  0.70192009  0.61642404     0.08900
H4174       H  0.77551952  0.66043624  0.51594441     0.08900
H4175       H  0.75583705  0.65505366  0.54139714     0.08900
H4176       H  0.78044340  0.63523946  0.53498489     0.05600
C4177       C  0.19865891  0.07349926  0.81319085    -0.20200
C4178       C  0.18874527  0.06017318  0.79403359    -0.06700
C4179       C  0.16349129  0.05950141  0.79067778     0.14100
C4180       C  0.14868852  0.07111290  0.80746202    -0.20200
C4181       C  0.15869220  0.08338044  0.82725604    -0.06700
C4182       C  0.18397378  0.08527088  0.82975208     0.14100
C4183       C  0.19553276  0.09980185  0.84971619    -0.23600
H4184       H  0.21808831  0.07405251  0.81561443     0.15400
H4185       H  0.12923889  0.07038918  0.80538746     0.15400
C4186       C  0.15211906  0.04574776  0.77016632    -0.23500
H4187       H  0.21551791  0.10009077  0.84826623     0.05700
H4188       H  0.19096003  0.09200158  0.86736588     0.08900
H4189       H  0.18910172  0.11868196  0.84901047     0.08900
H4190       H  0.15722782  0.02647185  0.77110820     0.08900
H4191       H  0.15833902  0.05337491  0.75290817     0.08900
H4192       H  0.13211584  0.04681311  0.77055315     0.05600
C4193       C  0.17044403  0.95914456  0.69642840    -0.20200
C4194       C  0.19372882  0.96634615  0.68978660    -0.06700
C4195       C  0.20508757  0.95515618  0.67004085     0.14100
C4196       C  0.19346861  0.93598532  0.65831359    -0.20200
C4197       C  0.17084742  0.92783308  0.66593229    -0.06700
C4198       C  0.15885127  0.93987221  0.68471505     0.14100
C4199       C  0.13431098  0.93170574  0.69297275    -0.23600
H4200       H  0.16215248  0.96731105  0.71203302     0.15400
H4201       H  0.20225418  0.92704683  0.64341218     0.15400
C4202       C  0.22984623  0.96248562  0.66157146    -0.23500
H4203       H  0.12761576  0.94295599  0.70804192     0.05700
H4204       H  0.13521425  0.91276306  0.69914677     0.08900
H4205       H  0.12117708  0.93292493  0.67795854     0.08900
H4206       H  0.24241629  0.94710403  0.66334043     0.08900
H4207       H  0.23736152  0.97803170  0.67178753     0.08900
H4208       H  0.22885531  0.96772402  0.64242523     0.05600
C4209       C  0.28641196  0.06028642  0.67750382    -0.20200
C4210       C  0.28390233  0.06601551  0.70181485    -0.06700
C4211       C  0.29925663  0.08342303  0.71261109     0.14100
C4212       C  0.31719490  0.09440641  0.69884081    -0.20200
C4213       C  0.32063145  0.08754018  0.67494606    -0.06700
C4214       C  0.30496123  0.07057227  0.66397950     0.14100
C4215       C  0.30871420  0.06231076  0.63848558    -0.23600
H4216       H  0.27518832  0.04620897  0.66966449     0.15400
H4217       H  0.32922212  0.10765259  0.70692102     0.15400
C4218       C  0.29734255  0.08965723  0.73888427    -0.23500
H4219       H  0.29542162  0.04821758  0.63308240     0.05700
H4220       H  0.32707949  0.05465453  0.63657996     0.08900
H4221       H  0.30670988  0.07769913  0.62607167     0.08900
H4222       H  0.30126122  0.07362452  0.74998711     0.08900
H4223       H  0.27885108  0.09607938  0.74286041     0.08900
H4224       H  0.31034204  0.10406316  0.74418636     0.05600
C4225       C  0.30894450  0.91974964  0.67226905    -0.09000
C4226       C  0.33031068  0.93056702  0.66434709    -0.06700
C4227       C  0.34044685  0.94990218  0.67756606     0.14100
C4228       C  0.32866763  0.95820979  0.69820420    -0.20200
C4229       C  0.30706775  0.94754225  0.70631477    -0.06700
C4230       C  0.29730990  0.92764707  0.69315060     0.14100
C4231       C  0.27457596  0.91456131  0.70046548    -0.23600
H4232       H  0.30167471  0.90454660  0.66223589     0.15400
H4233       H  0.33636555  0.97346997  0.70781895     0.15400
C4234       C  0.36363975  0.96216868  0.67040662    -0.23500
H4235       H  0.27024251  0.89925821  0.68823404     0.05700
H4236       H  0.25895931  0.92696239  0.69999837     0.08900
H4237       H  0.27685383  0.90706073  0.71872413     0.08900
H4238       H  0.37163402  0.95442532  0.65392246     0.08900
H4239       H  0.37708715  0.96052529  0.68510331     0.08900
H4240       H  0.36019891  0.98155653  0.66714278     0.05600
C4241       C  0.29387530  0.05600016  0.83291973    -0.20200
C4242       C  0.30690629  0.04252165  0.81589270    -0.06700
C4243       C  0.33119124  0.04911259  0.81110457     0.14100
C4244       C  0.34131414  0.06917642  0.82294139    -0.20200
C4245       C  0.32778594  0.08305162  0.83900493    -0.06700
C4246       C  0.30388849  0.07623237  0.84433047     0.14100
C4247       C  0.28844231  0.08987710  0.86190594    -0.23600
H4248       H  0.27521651  0.05147811  0.83667497     0.15400
H4249       H  0.35991756  0.07423567  0.81958716     0.15400
C4250       C  0.34672215  0.03521368  0.79380479    -0.23500
H4251       H  0.28296824  0.07770961  0.87665401     0.05700
H4252       H  0.27198124  0.09642343  0.85265014     0.08900
H4253       H  0.29779104  0.10567655  0.86997523     0.08900
H4254       H  0.34009532  0.03755308  0.77518778     0.08900
H4255       H  0.34661833  0.01582773  0.79855958     0.08900
H4256       H  0.36575109  0.04161622  0.79424645     0.05600
C4257       C  0.04668751  0.46538525  0.07891267    -0.20200
C4258       C  0.05384397  0.46972782  0.05516549    -0.06700
C4259       C  0.07041999  0.45358776  0.04412118     0.14100
C4260       C  0.07883711  0.43370858  0.05695877    -0.20200
C4261       C  0.07121975  0.42928677  0.08033421    -0.06700
C4262       C  0.05523770  0.44541775  0.09162520     0.14100
C4263       C  0.04690650  0.44129448  0.11693470    -0.23600
H4264       H  0.03387575  0.47734874  0.08740684     0.15400
H4265       H  0.09155811  0.42143240  0.04875502     0.15400
C4266       C  0.07879610  0.45625545  0.01854659    -0.23500
H4267       H  0.03393590  0.45527243  0.12285370     0.05700
H4268       H  0.06256494  0.44180608  0.12939291     0.08900
H4269       H  0.03785083  0.42345235  0.11813241     0.08900
H4270       H  0.08846753  0.47366981  0.01639397     0.08900
H4271       H  0.06312488  0.45518592  0.00610910     0.08900
H4272       H  0.09147540  0.44177817  0.01321435     0.05600
C4273       C  0.07109613  0.55065806  0.93190802    -0.20200
C4274       C  0.05629414  0.56556446  0.94603570    -0.06700
C4275       C  0.05472688  0.59038058  0.94062235     0.14100
C4276       C  0.06801320  0.59951827  0.92132663    -0.20200
C4277       C  0.08234934  0.58445011  0.90711885    -0.06700
C4278       C  0.08403771  0.55979280  0.91246420     0.14100
C4279       C  0.09966426  0.54323238  0.89781216    -0.23600
H4280       H  0.07208605  0.53155679  0.93568087     0.15400
H4281       H  0.06731394  0.61856830  0.91725818     0.15400
C4282       C  0.03963268  0.60744180  0.95527867    -0.23500
H4283       H  0.09909363  0.52447832  0.90459780     0.05700
H4284       H  0.11868412  0.54960544  0.89849670     0.08900
H4285       H  0.09334685  0.54298005  0.87890960     0.08900
H4286       H  0.04489369  0.60633227  0.97445807     0.08900
H4287       H  0.02020858  0.60293760  0.95315948     0.08900
H4288       H  0.04209017  0.62640424  0.94950658     0.05600
C4289       C  0.95114429  0.57034906  0.07349686    -0.20200
C4290       C  0.95380985  0.57409898  0.04880504    -0.06700
C4291       C  0.93630687  0.58800847  0.03642148     0.14100
C4292       C  0.91661208  0.59732666  0.04904132    -0.20200
C4293       C  0.91381322  0.59300599  0.07350718    -0.06700
C4294       C  0.93138633  0.57960887  0.08599924     0.14100
C4295       C  0.92903946  0.57456374  0.11241423    -0.23600
H4296       H  0.96425087  0.55948427  0.08293954     0.15400
H4297       H  0.90324747  0.60807763  0.03982214     0.15400
C4298       C  0.93741411  0.59228209  0.00977430    -0.23500
H4299       H  0.94382461  0.56290119  0.11902725     0.05700
H4300       H  0.91162631  0.56525511  0.11586785     0.08900
H4301       H  0.92978409  0.59160693  0.12286682     0.08900
H4302       H  0.93723263  0.57479867  0.00005325     0.08900
H4303       H  0.95403298  0.60254456  0.00533324     0.08900
H4304       H  0.92176943  0.60283737  0.00323672     0.05600
C4305       C  0.05355287  0.46135831  0.92450092    -0.20200
C4306       C  0.03713283  0.45028188  0.94007727    -0.06700
C4307       C  0.03989105  0.42569643  0.94565863     0.14100
C4308       C  0.05942248  0.41289524  0.93586203    -0.20200
C4309       C  0.07646075  0.42444340  0.92120156    -0.06700
C4310       C  0.07317381  0.44879651  0.91506133     0.14100
C4311       C  0.09044380  0.46156920  0.89858846    -0.23600
H4312       H  0.05174323  0.48041910  0.92079152     0.15400
H4313       H  0.06163867  0.39396236  0.93987123     0.15400
C4314       C  0.02286537  0.41337081  0.96265814    -0.23500
H4315       H  0.08504593  0.48052508  0.89548574     0.05700
H4316       H  0.09088818  0.45220858  0.88095954     0.08900
H4317       H  0.10883324  0.46172260  0.90654469     0.08900
H4318       H  0.00417295  0.41424463  0.95548487     0.08900
H4319       H  0.02356812  0.42241565  0.98045881     0.08900
H4320       H  0.02757946  0.39412911  0.96513357     0.05600
C4321       C  0.92200965  0.46028036  0.04968383    -0.20200
C4322       C  0.94110479  0.45086953  0.03618162    -0.06700
C4323       C  0.95068660  0.42816588  0.04224326     0.14100
C4324       C  0.94103760  0.41550514  0.06179025    -0.20200
C4325       C  0.92262192  0.42546630  0.07583713    -0.06700
C4326       C  0.91268470  0.44787758  0.06944519     0.14100
C4327       C  0.89250935  0.45885338  0.08376098    -0.23600
H4328       H  0.91528484  0.47807712  0.04553134     0.15400
H4329       H  0.94825041  0.39806351  0.06653099     0.15400
C4330       C  0.97197086  0.41799180  0.02895566    -0.23500
H4331       H  0.88694714  0.47653643  0.07644667     0.05700
H4332       H  0.89846234  0.46165326  0.10260007     0.08900
H4333       H  0.87653320  0.44669766  0.08343340     0.08900
H4334       H  0.98770590  0.43037412  0.03074169     0.08900
H4335       H  0.96732925  0.41577245  0.00969325     0.08900
H4336       H  0.97733221  0.40015493  0.03605764     0.05600
C4337       C  0.15744525  0.82811206  0.05589613    -0.20200
C4338       C  0.16376795  0.83334806  0.07962707    -0.06700
C4339       C  0.18017698  0.81849025  0.09186025     0.14100
C4340       C  0.19020676  0.79875690  0.07988328    -0.20200
C4341       C  0.18439545  0.79352680  0.05582489    -0.06700
C4342       C  0.16751567  0.80847111  0.04369961     0.14100
C4343       C  0.16028998  0.80459682  0.01782726    -0.23600
H4344       H  0.14431756  0.83940533  0.04699343     0.15400
H4345       H  0.20316487  0.78769281  0.08928150     0.15400
C4346       C  0.18727855  0.82364093  0.11750148    -0.23500
H4347       H  0.14682356  0.81801093  0.01176183     0.05700
H4348       H  0.15197165  0.78648452  0.01551178     0.08900
H4349       H  0.17627970  0.80646592  0.00605367     0.08900
H4350       H  0.17124161  0.82240985  0.12926947     0.08900
H4351       H  0.19517300  0.84202562  0.11892604     0.08900
H4352       H  0.20086032  0.81063421  0.12415342     0.05600
C4353       C  0.20685157  0.67559846  0.93871033    -0.20200
C4354       C  0.19244061  0.69011833  0.95367671    -0.06700
C4355       C  0.16752556  0.69252414  0.94824205     0.14100
C4356       C  0.15805543  0.68073435  0.92794300    -0.20200
C4357       C  0.17282814  0.66713704  0.91276693    -0.06700
C4358       C  0.19739374  0.66426736  0.91827975     0.14100
C4359       C  0.21358879  0.64914514  0.90269320    -0.23600
H4360       H  0.22596128  0.67376161  0.94239985     0.15400
H4361       H  0.13902394  0.68227815  0.92366068     0.15400
C4362       C  0.15068717  0.70726221  0.96351883    -0.23500
H4363       H  0.23228911  0.64845814  0.90988840     0.05700
H4364       H  0.21444445  0.65679053  0.88439828     0.08900
H4365       H  0.20646150  0.63043639  0.90162068     0.08900
H4366       H  0.15540803  0.72666400  0.96234490     0.08900
H4367       H  0.15173741  0.70123271  0.98242040     0.08900
H4368       H  0.13163155  0.70532533  0.95750660     0.05600
C4369       C  0.31409011  0.69597092  0.90632398    -0.20200
C4370       C  0.33043962  0.68066398  0.91789646    -0.06700
C4371       C  0.33790839  0.68592788  0.94154578     0.14100
C4372       C  0.32716697  0.70510294  0.95385625    -0.20200
C4373       C  0.30926488  0.71917267  0.94300383    -0.06700
C4374       C  0.30332562  0.71519585  0.91868993     0.14100
C4375       C  0.28458161  0.73026234  0.90631161    -0.23600
H4376       H  0.30913556  0.69230294  0.88784000     0.15400
H4377       H  0.33145511  0.70804987  0.97263204     0.15400
C4378       C  0.35685106  0.67106669  0.95389388    -0.23500
H4379       H  0.28208057  0.72473548  0.88729262     0.05700
H4380       H  0.29028591  0.74946671  0.90672221     0.08900
H4381       H  0.26695126  0.72837709  0.91550815     0.08900
H4382       H  0.37385998  0.67167107  0.94346682     0.08900
H4383       H  0.35062806  0.65210384  0.95533770     0.08900
H4384       H  0.36077514  0.67788753  0.97226639     0.05600
C4385       C  0.29602073  0.70008355  0.08313533    -0.20200
C4386       C  0.29219925  0.69420398  0.05882799    -0.06700
C4387       C  0.30846036  0.67811059  0.04729875     0.14100
C4388       C  0.32793360  0.66884439  0.06026853    -0.20200
C4389       C  0.33167745  0.67500087  0.08428362    -0.06700
C4390       C  0.31551046  0.69054593  0.09600957     0.14100
C4391       C  0.31901716  0.69715088  0.12201417    -0.23600
H4392       H  0.28393282  0.71249951  0.09203096     0.15400
H4393       H  0.34030627  0.65643706  0.05173074     0.15400
C4394       C  0.30625299  0.67100543  0.02120051    -0.23500
H4395       H  0.30492200  0.70976814  0.12839524     0.05700
H4396       H  0.33689925  0.70596236  0.12453469     0.08900
H4397       H  0.31814977  0.68069413  0.13317805     0.08900
H4398       H  0.30747985  0.68722943  0.00973882     0.08900
H4399       H  0.28887130  0.66144735  0.01800157     0.08900
H4400       H  0.32087590  0.65864151  0.01553187     0.05600
C4401       C  0.28953047  0.83104173  0.05540303    -0.20200
C4402       C  0.30153830  0.81489468  0.04017469    -0.06700
C4403       C  0.32643803  0.81088331  0.04345993     0.14100
C4404       C  0.33861734  0.82269991  0.06233874    -0.20200
C4405       C  0.32627901  0.83799639  0.07820988    -0.06700
C4406       C  0.30158439  0.84266101  0.07436978     0.14100
C4407       C  0.28791784  0.85978446  0.09029588    -0.23600
H4408       H  0.27025819  0.83355512  0.05318753     0.15400
H4409       H  0.35774940  0.81972367  0.06503809     0.15400
C4410       C  0.33981283  0.79328956  0.02783621    -0.23500
H4411       H  0.26886855  0.86172555  0.08438207     0.05700
H4412       H  0.29659017  0.87785458  0.08992841     0.08900
H4413       H  0.28779281  0.85306946  0.10896753     0.08900
H4414       H  0.33864636  0.79902811  0.00885113     0.08900
H4415       H  0.33175582  0.77502670  0.02957696     0.08900
H4416       H  0.35918397  0.79222084  0.03290143     0.05600
C4417       C  0.44645177  0.67674916  0.70037541    -0.20200
C4418       C  0.46078184  0.69392614  0.68867617    -0.06700
C4419       C  0.45822272  0.69709290  0.66376438     0.14100
C4420       C  0.44038164  0.68392241  0.65133035    -0.20200
C4421       C  0.42485321  0.66810555  0.66344070    -0.06700
C4422       C  0.42847938  0.66378656  0.68809882     0.14100
C4423       C  0.41331617  0.64624064  0.70212187    -0.23600
H4424       H  0.44816814  0.67466400  0.71962633     0.15400
H4425       H  0.43780933  0.68670213  0.63228464     0.15400
C4426       C  0.47323425  0.71542371  0.65067064    -0.23500
H4427       H  0.42517186  0.63247475  0.71031274     0.05700
H4428       H  0.39969286  0.63666999  0.69094740     0.08900
H4429       H  0.40369888  0.65600849  0.71660759     0.08900
H4430       H  0.49264982  0.71103708  0.65271015     0.08900
H4431       H  0.46992615  0.73368773  0.65813912     0.08900
H4432       H  0.46884162  0.71570495  0.63123573     0.05600
C4433       C  0.41914895  0.80695726  0.68351747    -0.20200
C4434       C  0.43621753  0.81847127  0.69858870    -0.06700
C4435       C  0.44308244  0.84264234  0.69338957     0.14100
C4436       C  0.43301585  0.85408357  0.67337676    -0.20200
C4437       C  0.41645890  0.84224470  0.65832997    -0.06700
C4438       C  0.40922540  0.81848214  0.66356261     0.14100
C4439       C  0.39077425  0.80491293  0.64873089    -0.23600
H4440       H  0.41366564  0.78853697  0.68696820     0.15400
H4441       H  0.43781713  0.87261705  0.66952390     0.15400
C4442       C  0.46078508  0.85685413  0.70858703    -0.23500
H4443       H  0.37517103  0.80000339  0.66015978     0.05700
H4444       H  0.39896651  0.78817990  0.64152893     0.08900
H4445       H  0.38388391  0.81542297  0.63336887     0.08900
H4446       H  0.47899269  0.84872908  0.70752331     0.08900
H4447       H  0.45454963  0.85739160  0.72746103     0.08900
H4448       H  0.46259206  0.87576984  0.70245163     0.05600
C4449       C  0.44297581  0.69657310  0.81481804    -0.20200
C4450       C  0.43000877  0.71157704  0.79909837    -0.06700
C4451       C  0.40512571  0.70670264  0.79509682     0.14100
C4452       C  0.39423812  0.68701180  0.80666082    -0.20200
C4453       C  0.40752744  0.67201220  0.82186819    -0.06700
C4454       C  0.43208052  0.67698655  0.82619683     0.14100
C4455       C  0.44665278  0.66196664  0.84333715    -0.23600
H4456       H  0.46201647  0.69983114  0.81802492     0.15400
H4457       H  0.37512929  0.68345576  0.80417974     0.15400
C4458       C  0.38971162  0.72225330  0.77923189    -0.23500
H4459       H  0.46556099  0.66854837  0.84494509     0.05700
H4460       H  0.44711397  0.64300722  0.83695482     0.08900
H4461       H  0.43842254  0.66261584  0.86143096     0.08900
H4462       H  0.39570921  0.72072321  0.76034775     0.08900
H4463       H  0.39087741  0.74130342  0.78533270     0.08900
H4464       H  0.37042773  0.71670200  0.77971680     0.05600
C4465       C  0.54730510  0.68363588  0.79253411    -0.20200
C4466       C  0.55400319  0.70709052  0.78617664    -0.06700
C4467       C  0.57283725  0.71899252  0.79873126     0.14100
C4468       C  0.58449425  0.70714401  0.81757176    -0.20200
C4469       C  0.57725507  0.68397185  0.82435429    -0.06700
C4470       C  0.55871555  0.67191605  0.81157619     0.14100
C4471       C  0.55051636  0.64702252  0.81857600    -0.23600
H4472       H  0.53214891  0.67504431  0.78348800     0.15400
H4473       H  0.59905575  0.71603008  0.82727091     0.15400
C4474       C  0.58000402  0.74448052  0.79275669    -0.23500
H4475       H  0.53543785  0.64044320  0.80705155     0.05700
H4476       H  0.54420777  0.64723297  0.83743415     0.08900
H4477       H  0.56568507  0.63417958  0.81682489     0.08900
H4478       H  0.56445155  0.75669841  0.79537844     0.08900
H4479       H  0.58588875  0.74535946  0.77379312     0.08900
H4480       H  0.59506843  0.75107589  0.80430189     0.05600
C4481       C  0.57344374  0.80411712  0.69205835    -0.20200
C4482       C  0.54869407  0.80124879  0.68745458    -0.06700
C4483       C  0.53724047  0.81623335  0.67049999     0.14100
C4484       C  0.55060423  0.83429773  0.65914250    -0.20200
C4485       C  0.57499990  0.83796659  0.66463442    -0.06700
C4486       C  0.58676840  0.82244134  0.68081318     0.14100
C4487       C  0.61308822  0.82586584  0.68681613    -0.23600
H4488       H  0.58197696  0.79302489  0.70553594     0.15400
H4489       H  0.54190285  0.84601354  0.64631148     0.15400
C4490       C  0.51070776  0.81355354  0.66481782    -0.23500
H4491       H  0.61941247  0.81243787  0.70006712     0.05700
H4492       H  0.61607603  0.84413666  0.69452588     0.08900
H4493       H  0.62407752  0.82386376  0.67034747     0.08900
H4494       H  0.49975638  0.81721126  0.68101050     0.08900
H4495       H  0.50691092  0.79495443  0.65835933     0.08900
H4496       H  0.50486332  0.82628960  0.65069525     0.05600
C4497       C  0.20498054  0.17164560  0.43131333    -0.20200
C4498       C  0.19006786  0.18327723  0.44811267    -0.06700
C4499       C  0.16474432  0.18259483  0.44482160     0.14100
C4500       C  0.15521569  0.17094464  0.42453248    -0.20200
C4501       C  0.17023725  0.15995084  0.40754128    -0.06700
C4502       C  0.19540878  0.15994622  0.41111718     0.14100
C4503       C  0.21263671  0.14767011  0.39422205    -0.23600
H4504       H  0.22443059  0.17226313  0.43349387     0.15400
H4505       H  0.13582066  0.17018778  0.42190387     0.15400
C4506       C  0.14758941  0.19350407  0.46270975    -0.23500
H4507       H  0.22314874  0.13396870  0.40414390     0.05700
H4508       H  0.22531360  0.16121471  0.38674874     0.08900
H4509       H  0.20343823  0.13842217  0.37905878     0.08900
H4510       H  0.14938736  0.21340375  0.46291192     0.08900
H4511       H  0.15137721  0.18629152  0.48084175     0.08900
H4512       H  0.12848928  0.18920382  0.45820440     0.05600
C4513       C  0.32073696  0.18587819  0.57923974    -0.20200
C4514       C  0.32278836  0.16089702  0.57687250    -0.06700
C4515       C  0.30527457  0.14778202  0.56357913     0.14100
C4516       C  0.28614721  0.16015421  0.55274766    -0.20200
C4517       C  0.28389854  0.18518459  0.55534713    -0.06700
C4518       C  0.30157681  0.19824551  0.56864053     0.14100
C4519       C  0.30107507  0.22536114  0.57086794    -0.23600
H4520       H  0.33413778  0.19568882  0.58970063     0.15400
H4521       H  0.27303257  0.15023696  0.54203251     0.15400
C4522       C  0.30635080  0.12083608  0.56040602    -0.23500
H4523       H  0.31692910  0.23249288  0.58095533     0.05700
H4524       H  0.28465210  0.23108647  0.58061842     0.08900
H4525       H  0.30130801  0.23358269  0.55278335     0.08900
H4526       H  0.28995656  0.11247772  0.56823812     0.08900
H4527       H  0.32237551  0.11274939  0.56908352     0.08900
H4528       H  0.30704243  0.11633178  0.54100886     0.05600
C4529       C  0.29778123  0.32800300  0.58231329    -0.20200
C4530       C  0.32287561  0.32540223  0.58282250    -0.06700
C4531       C  0.33432788  0.31088708  0.56539023     0.14100
C4532       C  0.32022931  0.29880866  0.54807833    -0.20200
C4533       C  0.29506621  0.30094533  0.54799770    -0.06700
C4534       C  0.28368361  0.31586853  0.56516697     0.14100
C4535       C  0.25667907  0.31928766  0.56527634    -0.23600
H4536       H  0.28924157  0.33956618  0.59546431     0.15400
H4537       H  0.32875212  0.28699420  0.53514029     0.15400
C4538       C  0.36130292  0.30772194  0.56542132    -0.23500
H4539       H  0.25105231  0.33257118  0.57910012     0.05700
H4540       H  0.24740038  0.30203997  0.56923972     0.08900
H4541       H  0.25059429  0.32592754  0.54753868     0.08900
H4542       H  0.36722882  0.30033104  0.58290643     0.08900
H4543       H  0.37039283  0.32530070  0.56245076     0.08900
H4544       H  0.36717255  0.29515435  0.55104929     0.05600
C4545       C  0.17911944  0.34280150  0.44578966    -0.20200
C4546       C  0.17200459  0.33811716  0.42208513    -0.06700
C4547       C  0.18389745  0.32005867  0.40872116     0.14100
C4548       C  0.20195618  0.30633182  0.41976187    -0.20200
C4549       C  0.20843785  0.31037808  0.44375904    -0.06700
C4550       C  0.19709804  0.32900455  0.45684572     0.14100
C4551       C  0.20303120  0.33338968  0.48291174    -0.23600
H4552       H  0.17009200  0.35686248  0.45582493     0.15400
H4553       H  0.21002637  0.29143317  0.41010600     0.15400
C4554       C  0.17676990  0.31457451  0.38317217    -0.23500
H4555       H  0.19224066  0.34833858  0.49060063     0.05700
H4556       H  0.22244111  0.33809992  0.48483333     0.08900
H4557       H  0.19918838  0.31693399  0.49344241     0.08900
H4558       H  0.17986062  0.33065446  0.37186244     0.08900
H4559       H  0.15738292  0.30945200  0.38234688     0.08900
H4560       H  0.18743453  0.29949868  0.37556471     0.05600
C4561       C  0.34116575  0.18726617  0.43818733    -0.20200
C4562       C  0.33355802  0.18073520  0.41506610    -0.06700
C4563       C  0.31402880  0.19285562  0.40432120     0.14100
C4564       C  0.30153982  0.21033979  0.41756159    -0.20200
C4565       C  0.30822247  0.21586106  0.44123104    -0.06700
C4566       C  0.32858834  0.20462086  0.45147529     0.14100
C4567       C  0.33631217  0.21016270  0.47685955    -0.23600
H4568       H  0.35646569  0.17814867  0.44610006     0.15400
H4569       H  0.28547313  0.21845132  0.41005037     0.15400
C4570       C  0.30583139  0.18658182  0.37926940    -0.23500
H4571       H  0.35270816  0.19997856  0.48200934     0.05700
H4572       H  0.32168883  0.20527978  0.48949954     0.08900
H4573       H  0.34040512  0.22969002  0.47868605     0.08900
H4574       H  0.30036698  0.16732464  0.37833801     0.08900
H4575       H  0.32079278  0.18980529  0.36649671     0.08900
H4576       H  0.29018789  0.19762524  0.37362340     0.05600
C4577       C  0.16554227  0.30542076  0.53459608    -0.20200
C4578       C  0.17899589  0.28949414  0.54896770    -0.06700
C4579       C  0.18190980  0.29501194  0.57372752     0.14100
C4580       C  0.17224477  0.31644984  0.58291059    -0.20200
C4581       C  0.15963906  0.33253630  0.56829052    -0.06700
C4582       C  0.15595639  0.32684202  0.54391851     0.14100
C4583       C  0.14166356  0.34318428  0.52782874    -0.23600
H4584       H  0.16306055  0.30155649  0.51569102     0.15400
H4585       H  0.17417822  0.32063222  0.60183151     0.15400
C4586       C  0.19467518  0.27846192  0.59090908    -0.23500
H4587       H  0.14021161  0.33586431  0.50929944     0.05700
H4588       H  0.15058374  0.36109443  0.52687348     0.08900
H4589       H  0.12313594  0.34535789  0.53497914     0.08900
H4590       H  0.21424826  0.27787167  0.58696675     0.08900
H4591       H  0.18672015  0.26009134  0.58965959     0.08900
H4592       H  0.19292100  0.28468211  0.60977598     0.05600
C4593       C  0.18750895  0.45276066  0.17640789    -0.20200
C4594       C  0.17596099  0.46595600  0.19467451    -0.06700
C4595       C  0.15250977  0.45862692  0.20194956     0.14100
C4596       C  0.14151551  0.43861159  0.19067676    -0.20200
C4597       C  0.15348208  0.42545014  0.17285335    -0.06700
C4598       C  0.17674412  0.43262701  0.16561372     0.14100
C4599       C  0.19059817  0.41972910  0.14622768    -0.23600
H4600       H  0.20557000  0.45766902  0.17078411     0.15400
H4601       H  0.12337799  0.43323785  0.19562453     0.15400
C4602       C  0.13871551  0.47174471  0.22119752    -0.23500
H4603       H  0.19431150  0.43236652  0.13133124     0.05700
H4604       H  0.18084337  0.40390510  0.13871006     0.08900
H4605       H  0.20802976  0.41332390  0.15363318     0.08900
H4606       H  0.13733807  0.49112824  0.21666254     0.08900
H4607       H  0.14784120  0.46964640  0.23878802     0.08900
H4608       H  0.12009804  0.46449520  0.22311292     0.05600
C4609       C  0.29497376  0.58526687  0.18979446    -0.20200
C4610       C  0.29057496  0.56060826  0.18580892    -0.06700
C4611       C  0.30707149  0.54722079  0.17163557     0.14100
C4612       C  0.32708172  0.55900821  0.16158361    -0.20200
C4613       C  0.33120642  0.58360093  0.16560549    -0.06700
C4614       C  0.31507860  0.59688230  0.17996652     0.14100
C4615       C  0.31932375  0.62324167  0.18531797    -0.23600
H4616       H  0.28278069  0.59547698  0.20103175     0.15400
H4617       H  0.33957055  0.54906264  0.15043168     0.15400
C4618       C  0.30441198  0.52042095  0.16772992    -0.23500
H4619       H  0.30553387  0.63057368  0.19771838     0.05700
H4620       H  0.31852055  0.63385876  0.16857330     0.08900
H4621       H  0.33732427  0.62574061  0.19382439     0.08900
H4622       H  0.28746566  0.51645708  0.15776162     0.08900
H4623       H  0.30416935  0.51105548  0.18523141     0.08900
H4624       H  0.31956990  0.51292229  0.15713013     0.05600
C4625       C  0.32085103  0.55350573  0.30246975    -0.20200
C4626       C  0.29606891  0.55128198  0.30682104    -0.06700
C4627       C  0.28473811  0.56760708  0.32271542     0.14100
C4628       C  0.29834336  0.58618138  0.33337589    -0.20200
C4629       C  0.32287674  0.58907602  0.32818305    -0.06700
C4630       C  0.33440793  0.57233570  0.31289271     0.14100
C4631       C  0.36073634  0.57496857  0.30676506    -0.23600
H4632       H  0.32924596  0.54149232  0.28962550     0.15400
H4633       H  0.28977483  0.59875475  0.34555115     0.15400
C4634       C  0.25812985  0.56571025  0.32806701    -0.23500
H4635       H  0.36664329  0.56086259  0.29389919     0.05700
H4636       H  0.37195289  0.57339377  0.32318693     0.08900
H4637       H  0.36398911  0.59282897  0.29850679     0.08900
H4638       H  0.25403742  0.54771644  0.33564454     0.08900
H4639       H  0.24736912  0.56816559  0.31148864     0.08900
H4640       H  0.25231877  0.57961876  0.34119237     0.05600
C4641       C  0.19133907  0.46516763  0.32846780    -0.20200
C4642       C  0.20467384  0.45453118  0.30991819    -0.06700
C4643       C  0.20178862  0.42965580  0.30508922     0.14100
C4644       C  0.18470401  0.41630647  0.31817335    -0.20200
C4645       C  0.17044940  0.42740547  0.33576208    -0.06700
C4646       C  0.17438590  0.45188552  0.34153006     0.14100
C4647       C  0.16043833  0.46405991  0.36126233    -0.23600
H4648       H  0.19343996  0.48429592  0.33200160     0.15400
H4649       H  0.18190153  0.39735538  0.31421228     0.15400
C4650       C  0.21570234  0.41753669  0.28533659    -0.23500
H4651       H  0.16602775  0.48316902  0.36367940     0.05700
H4652       H  0.16359939  0.45457642  0.37843753     0.08900
H4653       H  0.14086084  0.46368459  0.35700393     0.08900
H4654       H  0.23534344  0.41908307  0.28908154     0.08900
H4655       H  0.21159653  0.42620899  0.26792840     0.08900
H4656       H  0.21103053  0.39810447  0.28375592     0.05600
C4657       C  0.15673695  0.59427870  0.30999076    -0.20200
C4658       C  0.17307503  0.60831367  0.32343243    -0.06700
C4659       C  0.19705911  0.61078027  0.31566836     0.14100
C4660       C  0.20461962  0.59762988  0.29551573    -0.20200
C4661       C  0.18891389  0.58147034  0.28344368    -0.06700
C4662       C  0.16432325  0.58067897  0.29017293     0.14100
C4663       C  0.14595038  0.56561725  0.27672823    -0.23600
H4664       H  0.13808486  0.59320467  0.31570520     0.15400
H4665       H  0.22339296  0.59874795  0.29027847     0.15400
C4666       C  0.21475227  0.62667902  0.32900458    -0.23500
H4667       H  0.12733068  0.56919671  0.28306355     0.05700
H4668       H  0.14936172  0.54616958  0.27940527     0.08900
H4669       H  0.14664504  0.56991164  0.25734017     0.08900
H4670       H  0.21674522  0.62034499  0.34772524     0.08900
H4671       H  0.20820640  0.64552480  0.32920010     0.08900
H4672       H  0.23285434  0.62650787  0.32053506     0.05600
C4673       C  0.33627638  0.44356792  0.18926405    -0.20200
C4674       C  0.32592385  0.42678449  0.17327214    -0.06700
C4675       C  0.30123903  0.42069343  0.17546845     0.14100
C4676       C  0.28726449  0.43247780  0.19275523    -0.20200
C4677       C  0.29729127  0.45004184  0.20812239    -0.06700
C4678       C  0.32220374  0.45538123  0.20662513     0.14100
C4679       C  0.33366136  0.47445943  0.22234201    -0.23600
H4680       H  0.35527652  0.44796787  0.18762216     0.15400
H4681       H  0.26807583  0.42860536  0.19361301     0.15400
C4682       C  0.28896639  0.40218049  0.15962575    -0.23500
H4683       H  0.35315941  0.47678678  0.21839766     0.05700
H4684       H  0.33187807  0.46930596  0.24143628     0.08900
H4685       H  0.32468381  0.49202771  0.21947465     0.08900
H4686       H  0.27424368  0.41085316  0.14931486     0.08900
H4687       H  0.28110308  0.38775905  0.17091628     0.08900
H4688       H  0.30136842  0.39352807  0.14669841     0.05600
C4689       C  0.94486025  0.17662057  0.83436299    -0.20200
C4690       C  0.92029058  0.17237880  0.83015936    -0.06700
C4691       C  0.90705611  0.18831366  0.81568414     0.14100
C4692       C  0.91877275  0.20812970  0.80550088    -0.20200
C4693       C  0.94355734  0.21241328  0.80919240    -0.06700
C4694       C  0.95680229  0.19634167  0.82397390     0.14100
C4695       C  0.98358322  0.19909136  0.82830461    -0.23600
H4696       H  0.95467690  0.16440635  0.84586908     0.15400
H4697       H  0.90853479  0.22008482  0.79409546     0.15400
C4698       C  0.88058612  0.18416817  0.81068968    -0.23500
H4699       H  0.99076030  0.18457804  0.83989558     0.05700
H4700       H  0.98741249  0.21651575  0.83745718     0.08900
H4701       H  0.99340722  0.19820872  0.81102311     0.08900
H4702       H  0.87022042  0.18498760  0.82763680     0.08900
H4703       H  0.87792436  0.16619596  0.80220488     0.08900
H4704       H  0.87313115  0.19794506  0.79841443     0.05600
C4705       C  0.81833035  0.19133458  0.90074813    -0.20200
C4706       C  0.83217343  0.17540193  0.91430958    -0.06700
C4707       C  0.83644994  0.18014835  0.93873084     0.14100
C4708       C  0.82639883  0.20070957  0.94924035    -0.20200
C4709       C  0.81176448  0.21659751  0.93601292    -0.06700
C4710       C  0.80783808  0.21177231  0.91121992     0.14100
C4711       C  0.79272765  0.22775406  0.89545908    -0.23600
H4712       H  0.81569649  0.18762431  0.88181288     0.15400
H4713       H  0.82945623  0.20385947  0.96819206     0.15400
C4714       C  0.85174350  0.16354213  0.95361881    -0.23500
H4715       H  0.79329102  0.22196655  0.87637838     0.05700
H4716       H  0.79959455  0.24656254  0.89645743     0.08900
H4717       H  0.77354899  0.22697774  0.90105325     0.08900
H4718       H  0.87014968  0.16242024  0.94593216     0.08900
H4719       H  0.84349635  0.14527229  0.95380246     0.08900
H4720       H  0.85342619  0.16995146  0.97244866     0.05600
C4721       C  0.55930725  0.93555726  0.90771787    -0.20200
C4722       C  0.57744134  0.92237728  0.91936250    -0.06700
C4723       C  0.57680824  0.91990220  0.94446884     0.14100
C4724       C  0.55925473  0.93230902  0.95753060    -0.20200
C4725       C  0.54192361  0.94665455  0.94607898    -0.06700
C4726       C  0.54142006  0.94768060  0.92083805     0.14100
C4727       C  0.52273915  0.96229307  0.90786567    -0.23600
H4728       H  0.55941538  0.93662329  0.88833253     0.15400
H4729       H  0.55950387  0.93145674  0.97694041     0.15400
C4730       C  0.59450443  0.90406051  0.95744926    -0.23500
H4731       H  0.52511874  0.96133620  0.88813249     0.05700
H4732       H  0.52410259  0.98147402  0.91348803     0.08900
H4733       H  0.50444619  0.95531003  0.91211767     0.08900
H4734       H  0.61318302  0.91078649  0.95483382     0.08900
H4735       H  0.59305647  0.88533975  0.95044090     0.08900
H4736       H  0.59097242  0.90365608  0.97701790     0.05600
C4737       C  0.55438628  0.84907879  0.82157381    -0.20200
C4738       C  0.57048254  0.83421338  0.83395191    -0.06700
C4739       C  0.56509147  0.80960056  0.83675626     0.14100
C4740       C  0.54447914  0.80002142  0.82555826    -0.20200
C4741       C  0.52926722  0.81448650  0.81146471    -0.06700
C4742       C  0.53378526  0.83956133  0.81026525     0.14100
C4743       C  0.51692897  0.85644573  0.79747654    -0.23600
H4744       H  0.55819297  0.86822359  0.82055941     0.15400
H4745       H  0.54104825  0.78082816  0.82674852     0.15400
C4746       C  0.58107321  0.79351462  0.85148274    -0.23500
H4747       H  0.52207566  0.87558491  0.80058020     0.05700
H4748       H  0.49826459  0.85386190  0.80418792     0.08900
H4749       H  0.51738555  0.85324432  0.77786190     0.08900
H4750       H  0.58216579  0.80046804  0.87016033     0.08900
H4751       H  0.59946170  0.79304550  0.84371573     0.08900
H4752       H  0.57403872  0.77474693  0.85202210     0.05600
C4753       C  0.79470034  0.57179325  0.83633323    -0.20200
C4754       C  0.81709608  0.58064775  0.82869206    -0.06700
C4755       C  0.82854126  0.57002935  0.80873407     0.14100
C4756       C  0.81664714  0.55163133  0.79594856    -0.20200
C4757       C  0.79375306  0.54353181  0.80289299    -0.06700
C4758       C  0.78284612  0.55332766  0.82357055     0.14100
C4759       C  0.75824209  0.54494265  0.83150569    -0.23600
H4760       H  0.78630106  0.57973805  0.85198102     0.15400
H4761       H  0.82453726  0.54460705  0.77960818     0.15400
C4762       C  0.85295708  0.57865929  0.80054762    -0.23500
H4763       H  0.75236461  0.55439202  0.84806499     0.05700
H4764       H  0.75870323  0.52532319  0.83518474     0.08900
H4765       H  0.74466754  0.54840892  0.81727867     0.08900
H4766       H  0.86637511  0.57631994  0.81516807     0.08900
H4767       H  0.85208928  0.59799292  0.79570762     0.08900
H4768       H  0.85928244  0.56844997  0.78461346     0.05600
C4769       C  0.92212439  0.56697898  0.90212344    -0.20200
C4770       C  0.90596194  0.58162644  0.91483680    -0.06700
C4771       C  0.90148226  0.57687335  0.93920989     0.14100
C4772       C  0.91430015  0.55848605  0.95067409    -0.20200
C4773       C  0.93163298  0.54480513  0.93842902    -0.06700
C4774       C  0.93522654  0.54876620  0.91374004     0.14100
C4775       C  0.95371827  0.53459319  0.90001213    -0.23600
H4776       H  0.92502430  0.57033915  0.88324161     0.15400
H4777       H  0.91181196  0.55567353  0.96970229     0.15400
C4778       C  0.88349790  0.59149419  0.95319000    -0.23500
H4779       H  0.95429116  0.53991064  0.88086939     0.05700
H4780       H  0.94921894  0.51510530  0.90086087     0.08900
H4781       H  0.97191799  0.53767955  0.90789267     0.08900
H4782       H  0.86537872  0.58975481  0.94476271     0.08900
H4783       H  0.88903264  0.61074038  0.95339689     0.08900
H4784       H  0.88213678  0.58538015  0.97204923     0.05600
C4785       C  0.91955085  0.96325565  0.55459525    -0.20200
C4786       C  0.93628176  0.95107285  0.54015927    -0.06700
C4787       C  0.94003411  0.92623426  0.54364645     0.14100
C4788       C  0.92724746  0.91424539  0.56180265    -0.20200
C4789       C  0.91128114  0.92673114  0.57685873    -0.06700
C4790       C  0.90698001  0.95139150  0.57286398     0.14100
C4791       C  0.88932228  0.96521262  0.58801501    -0.23600
H4792       H  0.91721950  0.98248457  0.55230675     0.15400
H4793       H  0.93011031  0.89518704  0.56468291     0.15400
C4794       C  0.95831129  0.91272629  0.52898790    -0.23500
H4795       H  0.88794651  0.98428750  0.58231744     0.05700
H4796       H  0.89516977  0.96506352  0.60705386     0.08900
H4797       H  0.87113775  0.95683095  0.58646224     0.08900
H4798       H  0.97652272  0.92074614  0.53178129     0.08900
H4799       H  0.95344902  0.91377374  0.50970500     0.08900
H4800       H  0.95909425  0.89342981  0.53404500     0.05600
C4801       C  0.79883540  0.84575028  0.56611992    -0.20200
C4802       C  0.82259738  0.83925755  0.57159061    -0.06700
C4803       C  0.83416386  0.82151299  0.55754305     0.14100
C4804       C  0.82117619  0.80957483  0.53921073    -0.20200
C4805       C  0.79692814  0.81509716  0.53464361    -0.06700
C4806       C  0.78581654  0.83376921  0.54792719     0.14100
C4807       C  0.75984675  0.84044802  0.54344834    -0.23600
H4808       H  0.79024849  0.85974218  0.57662710     0.15400
H4809       H  0.82944747  0.79479778  0.52954789     0.15400
C4810       C  0.85991355  0.81459905  0.56257589    -0.23500
H4811       H  0.75418535  0.85583595  0.55488567     0.05700
H4812       H  0.74775950  0.82498160  0.54742522     0.08900
H4813       H  0.75747372  0.84566793  0.52441652     0.08900
H4814       H  0.86157105  0.80794341  0.58122639     0.08900
H4815       H  0.87189231  0.83051735  0.56031726     0.08900
H4816       H  0.86615886  0.80018264  0.55023168     0.05600
C4817       C  0.78937653  0.93492790  0.18935393    -0.20200
C4818       C  0.80309212  0.95011816  0.20436592    -0.06700
C4819       C  0.82822477  0.95198209  0.20120829     0.14100
C4820       C  0.83896807  0.93936743  0.18220382    -0.20200
C4821       C  0.82496861  0.92517221  0.16642150    -0.06700
C4822       C  0.80004087  0.92223642  0.17050805     0.14100
C4823       C  0.78469746  0.90577416  0.15506968    -0.23600
H4824       H  0.76999221  0.93382055  0.19180793     0.15400
H4825       H  0.85823486  0.94095675  0.17927054     0.15400
C4826       C  0.84340146  0.96797518  0.21719807    -0.23500
H4827       H  0.76569672  0.90513782  0.16131167     0.05700
H4828       H  0.79199514  0.88720877  0.15565239     0.08900
H4829       H  0.78456747  0.91211763  0.13627475     0.08900
H4830       H  0.84173598  0.96196758  0.23605821     0.08900
H4831       H  0.83722595  0.98690398  0.21582835     0.08900
H4832       H  0.86276901  0.96738514  0.21219571     0.05600
C4833       C  0.90618822  0.81583788  0.16775812    -0.20200
C4834       C  0.91352354  0.83914775  0.16177324    -0.06700
C4835       C  0.93136565  0.85096351  0.17565192     0.14100
C4836       C  0.94159044  0.83906427  0.19531369    -0.20200
C4837       C  0.93432076  0.81558893  0.20151967    -0.06700
C4838       C  0.91626603  0.80383951  0.18739575     0.14100
C4839       C  0.90791642  0.77841238  0.19215450    -0.23600
H4840       H  0.89214087  0.80716992  0.15714779     0.15400
H4841       H  0.95561143  0.84804571  0.20568536     0.15400
C4842       C  0.93971141  0.87603246  0.16951779    -0.23500
H4843       H  0.89445109  0.77204119  0.17869730     0.05700
H4844       H  0.89928863  0.77742062  0.21003164     0.08900
H4845       H  0.92349180  0.76601215  0.19135689     0.08900
H4846       H  0.92432789  0.88869850  0.17056483     0.08900
H4847       H  0.94710098  0.87615772  0.15105628     0.08900
H4848       H  0.95403916  0.88256896  0.18197804     0.05600
C4849       C  0.16557263  0.91367177  0.80859441    -0.20200
C4850       C  0.16107199  0.91963360  0.83253019    -0.06700
C4851       C  0.17618109  0.93629783  0.84453395     0.14100
C4852       C  0.19547447  0.94684366  0.83219751    -0.20200
C4853       C  0.20014762  0.94114350  0.80803223    -0.06700
C4854       C  0.18482591  0.92417723  0.79607629     0.14100
C4855       C  0.18794666  0.91730282  0.77006189    -0.23600
H4856       H  0.15400753  0.90049091  0.79976804     0.15400
H4857       H  0.20680135  0.95988575  0.84149829     0.15400
C4858       C  0.17180237  0.94302621  0.87034393    -0.23500
H4859       H  0.17407477  0.90406816  0.76396222     0.05700
H4860       H  0.20584823  0.90886440  0.76738315     0.08900
H4861       H  0.18619069  0.93347354  0.75859395     0.08900
H4862       H  0.17341441  0.92685891  0.88181690     0.08900
H4863       H  0.15341139  0.95061068  0.87223723     0.08900
H4864       H  0.18500729  0.95669978  0.87692056     0.05600
C4865       C  0.17941519  0.84289725  0.93482626    -0.20200
C4866       C  0.16561629  0.83038991  0.91757086    -0.06700
C4867       C  0.17185404  0.80660902  0.91124461     0.14100
C4868       C  0.19100899  0.79541617  0.92320827    -0.20200
C4869       C  0.20421447  0.80751093  0.94119219    -0.06700
C4870       C  0.19852834  0.83160042  0.94692650     0.14100
C4871       C  0.21175871  0.84487484  0.96664445    -0.23600
H4872       H  0.17476099  0.86132180  0.93926209     0.15400
H4873       H  0.19502540  0.77670960  0.91930253     0.15400
C4874       C  0.15812206  0.79300971  0.89206704    -0.23500
H4875       H  0.20496858  0.86352437  0.96893926     0.05700
H4876       H  0.23127733  0.84588183  0.96234846     0.08900
H4877       H  0.20937038  0.83528613  0.98388149     0.08900
H4878       H  0.15935511  0.80282819  0.87484451     0.08900
H4879       H  0.13887568  0.79123247  0.89721487     0.08900
H4880       H  0.16543511  0.77463023  0.88926351     0.05600
C4881       C  0.91502067  0.95176001  0.73395456    -0.20200
C4882       C  0.93650932  0.94168873  0.74305000    -0.06700
C4883       C  0.94637863  0.92151894  0.73066463     0.14100
C4884       C  0.93382285  0.91142580  0.71095248    -0.20200
C4885       C  0.91202851  0.92107722  0.70270520    -0.06700
C4886       C  0.90287810  0.94193112  0.71397444     0.14100
C4887       C  0.88020609  0.95417104  0.70552434    -0.23600
H4888       H  0.90724644  0.96740136  0.74261098     0.15400
H4889       H  0.94096279  0.89568243  0.70191728     0.15400
C4890       C  0.97019472  0.91048332  0.73754744    -0.23500
H4891       H  0.88443881  0.97311234  0.70075152     0.05700
H4892       H  0.86665782  0.95410842  0.72012169     0.08900
H4893       H  0.87199699  0.94534885  0.68956373     0.08900
H4894       H  0.96896030  0.90228230  0.75557595     0.08900
H4895       H  0.98462523  0.92444471  0.73727883     0.08900
H4896       H  0.97554881  0.89596848  0.72489043     0.05600
C4897       C  0.01198636  0.92646417  0.79768263    -0.20200
C4898       C  0.99485387  0.93914052  0.81126622    -0.06700
C4899       C  0.99735504  0.93953879  0.83662767     0.14100
C4900       C  0.01734237  0.92831056  0.84737146    -0.20200
C4901       C  0.03461379  0.91609348  0.83366740    -0.06700
C4902       C  0.03159845  0.91475633  0.80853590     0.14100
C4903       C  0.04854935  0.90028422  0.79317291    -0.23600
H4904       H  0.01006174  0.92569960  0.77836479     0.15400
H4905       H  0.01933276  0.92863558  0.86670654     0.15400
C4906       C  0.97854059  0.95055209  0.85270270    -0.23500
H4907       H  0.04293609  0.90027707  0.77404266     0.05700
H4908       H  0.04879531  0.88132442  0.79936472     0.08900
H4909       H  0.06705356  0.90790678  0.79423037     0.08900
H4910       H  0.96055612  0.94260140  0.84854162     0.08900
H4911       H  0.97803150  0.97032393  0.85033159     0.08900
H4912       H  0.98244236  0.94718983  0.87193141     0.05600
C4913       C  0.91140055  0.00901039  0.80218900    -0.20200
C4914       C  0.93644941  0.00595832  0.80480386    -0.06700
C4915       C  0.95004991  0.02399083  0.81703916     0.14100
C4916       C  0.93806855  0.04366395  0.82745191    -0.20200
C4917       C  0.91294580  0.04596013  0.82580256    -0.06700
C4918       C  0.89950417  0.02875779  0.81249755     0.14100
C4919       C  0.87265023  0.03130872  0.80896986    -0.23600
H4920       H  0.90092570  0.99554257  0.79250269     0.15400
H4921       H  0.94829267  0.05717701  0.83734590     0.15400
C4922       C  0.97719234  0.02316204  0.81864073    -0.23500
H4923       H  0.86515518  0.01678837  0.79729230     0.05700
H4924       H  0.86873243  0.04885993  0.80041225     0.08900
H4925       H  0.86321978  0.03036948  0.82642096     0.08900
H4926       H  0.98494495  0.02143543  0.80040370     0.08900
H4927       H  0.98299076  0.00781567  0.82979923     0.08900
H4928       H  0.98478356  0.03978269  0.82700227     0.05600
C4929       C  0.93643626  0.74094489  0.91440029    -0.20200
C4930       C  0.92907367  0.74781852  0.93758866    -0.06700
C4931       C  0.91083352  0.73387070  0.94903449     0.14100
C4932       C  0.90035717  0.71416000  0.93681281    -0.20200
C4933       C  0.90738132  0.70796718  0.91354091    -0.06700
C4934       C  0.92577825  0.72129894  0.90228905     0.14100
C4935       C  0.93403004  0.71479670  0.87741010    -0.23600
H4936       H  0.95031977  0.75126164  0.90540592     0.15400
H4937       H  0.88617000  0.70373907  0.94524184     0.15400
C4938       C  0.90230816  0.73912179  0.97415877    -0.23500
H4939       H  0.94869936  0.72692580  0.87119802     0.05700
H4940       H  0.91870709  0.71616535  0.86461902     0.08900
H4941       H  0.94092171  0.69606081  0.87721797     0.08900
H4942       H  0.89283383  0.75665937  0.97477000     0.08900
H4943       H  0.91789953  0.73931878  0.98672338     0.08900
H4944       H  0.88934168  0.72526648  0.98053765     0.05600
C4945       C  0.91697865  0.80061971  0.01471123    -0.20200
C4946       C  0.92719961  0.81456092  0.99639325    -0.06700
C4947       C  0.92484971  0.83989301  0.99732945     0.14100
C4948       C  0.91465036  0.85068706  0.01767587    -0.20200
C4949       C  0.90490578  0.83679403  0.03625361    -0.06700
C4950       C  0.90527436  0.81138699  0.03429312     0.14100
C4951       C  0.89240403  0.79559933  0.05209258    -0.23600
H4952       H  0.91796122  0.78115378  0.01357983     0.15400
H4953       H  0.91334114  0.87014145  0.01870936     0.15400
C4954       C  0.93101729  0.85548751  0.97619251    -0.23500
H4955       H  0.89336085  0.77626735  0.04695547     0.05700
H4956       H  0.87307432  0.80066704  0.05291836     0.08900
H4957       H  0.90057214  0.79753089  0.07014627     0.08900
H4958       H  0.92081279  0.84911928  0.96017053     0.08900
H4959       H  0.95050439  0.85489359  0.97236737     0.08900
H4960       H  0.92622171  0.87462685  0.97943343     0.05600
C4961       C  0.00605583  0.79619158  0.92030565    -0.20200
C4962       C  0.99710528  0.80640385  0.94168994    -0.06700
C4963       C  0.01108466  0.82489405  0.95305161     0.14100
C4964       C  0.03129770  0.83448828  0.94123937    -0.20200
C4965       C  0.03890393  0.82538604  0.91911702    -0.06700
C4966       C  0.02699469  0.80505235  0.90924800     0.14100
C4967       C  0.03562168  0.79268133  0.88678112    -0.23600
H4968       H  0.99648660  0.78137328  0.91173471     0.15400
H4969       H  0.04105258  0.84959942  0.94909689     0.15400
C4970       C  0.00559498  0.83449561  0.97774206    -0.23500
H4971       H  0.03923679  0.77344443  0.89066380     0.05700
H4972       H  0.05248809  0.80072030  0.87970337     0.08900
H4973       H  0.02148438  0.79374137  0.87267827     0.08900
H4974       H  0.00409001  0.81938574  0.99059054     0.08900
H4975       H  0.98878098  0.84501827  0.97747941     0.08900
H4976       H  0.02004320  0.84678320  0.98445881     0.05600
C4977       C  0.79797710  0.01479408  0.91335937    -0.20200
C4978       C  0.79835662  0.01467600  0.93858213    -0.06700
C4979       C  0.81016431  0.03383399  0.95091536     0.14100
C4980       C  0.82331172  0.05092890  0.93779056    -0.20200
C4981       C  0.82383602  0.05021230  0.91266786    -0.06700
C4982       C  0.81017641  0.03254239  0.90029333     0.14100
C4983       C  0.80793870  0.03271740  0.87335395    -0.23600
H4984       H  0.78837391  0.00068921  0.90369329     0.15400
H4985       H  0.83304335  0.06517648  0.94713790     0.15400
C4986       C  0.80781905  0.03740433  0.97760001    -0.23500
H4987       H  0.79552344  0.01834906  0.86673001     0.05700
H4988       H  0.82576022  0.02976148  0.86493881     0.08900
H4989       H  0.80068395  0.05032192  0.86745883     0.08900
H4990       H  0.81677021  0.02275287  0.98742505     0.08900
H4991       H  0.78844040  0.03798711  0.98252252     0.08900
H4992       H  0.81632372  0.05457445  0.98366487     0.05600
C4993       C  0.73185918  0.95640218  0.91417408    -0.20200
C4994       C  0.73945173  0.94779047  0.93673660    -0.06700
C4995       C  0.72822925  0.92653840  0.94578291     0.14100
C4996       C  0.70990792  0.91514729  0.93234067    -0.20200
C4997       C  0.70258106  0.92398091  0.91009573    -0.06700
C4998       C  0.71372107  0.94470564  0.90078063     0.14100
C4999       C  0.70642901  0.95441850  0.87668408    -0.23600
H5000       H  0.74018278  0.97237235  0.90673646     0.15400
H5001       H  0.70114770  0.89909857  0.93917117     0.15400
C5002       C  0.73497217  0.91544972  0.96947036    -0.23500
H5003       H  0.71702022  0.97072841  0.87190907     0.05700
H5004       H  0.68704324  0.95931885  0.87684343     0.08900
H5005       H  0.70944177  0.94051291  0.86264166     0.08900
H5006       H  0.73187782  0.92856600  0.98420934     0.08900
H5007       H  0.75411632  0.90969192  0.96920935     0.08900
H5008       H  0.72394310  0.89918798  0.97340433     0.05600
C5009       C  0.78481348  0.93858945  0.01742304    -0.20200
C5010       C  0.79926978  0.95324299  0.00267857    -0.06700
C5011       C  0.82438282  0.95501595  0.00770703     0.14100
C5012       C  0.83412517  0.94203017  0.02691322    -0.20200
C5013       C  0.81972587  0.92707123  0.04106706    -0.06700
C5014       C  0.79475869  0.92535841  0.03639314     0.14100
C5015       C  0.77880122  0.90897645  0.05087607    -0.23600
H5016       H  0.76564179  0.93707073  0.01381199     0.15400
H5017       H  0.85332276  0.94305671  0.03064944     0.15400
C5018       C  0.84147770  0.96942583  0.99244376    -0.23500
H5019       H  0.75978194  0.90937256  0.04452653     0.05700
H5020       H  0.77911101  0.91463743  0.06997828     0.08900
H5021       H  0.78532522  0.89016013  0.04938901     0.08900
H5022       H  0.83734664  0.98880790  0.99407096     0.08900
H5023       H  0.84005429  0.96350469  0.97345099     0.08900
H5024       H  0.86055393  0.96717474  0.99815079     0.05600
C5025       C  0.82146416  0.74145401  0.79704932    -0.20200
C5026       C  0.79687135  0.74650200  0.80072211    -0.06700
C5027       C  0.78347619  0.73110524  0.81614312     0.14100
C5028       C  0.79511581  0.71185220  0.82764243    -0.20200
C5029       C  0.81972833  0.70738841  0.82433848    -0.06700
C5030       C  0.83299435  0.72220457  0.80856705     0.14100
C5031       C  0.85935136  0.71818023  0.80341090    -0.23600
H5032       H  0.83202176  0.75282982  0.78530535     0.15400
H5033       H  0.78504872  0.70038536  0.83971777     0.15400
C5034       C  0.75686204  0.73435232  0.82051155    -0.23500
H5035       H  0.86994469  0.73425287  0.80918012     0.05700
H5036       H  0.86183182  0.71539070  0.78385806     0.08900
H5037       H  0.86678980  0.70223137  0.81263850     0.08900
H5038       H  0.74695515  0.73452052  0.80317663     0.08900
H5039       H  0.75373189  0.75135676  0.83053213     0.08900
H5040       H  0.74920432  0.71952500  0.83143324     0.05600
C5041       C  0.71949348  0.79791672  0.81121524    -0.20200
C5042       C  0.73634667  0.81177007  0.79834420    -0.06700
C5043       C  0.73342057  0.83714959  0.79779283     0.14100
C5044       C  0.71355288  0.84765829  0.80934463    -0.20200
C5045       C  0.69708064  0.83383714  0.82253251    -0.06700
C5046       C  0.70024307  0.80861959  0.82365482     0.14100
C5047       C  0.68418934  0.79307103  0.83895438    -0.23600
H5048       H  0.72166743  0.77856154  0.81199202     0.15400
H5049       H  0.71140166  0.86704987  0.80904863     0.15400
C5050       C  0.75192673  0.85362121  0.78670759    -0.23500
H5051       H  0.69002747  0.77396883  0.83877618     0.05700
H5052       H  0.66534061  0.79354204  0.83228812     0.08900
H5053       H  0.68477056  0.79962210  0.85778950     0.08900
H5054       H  0.75237698  0.85095311  0.76707895     0.08900
H5055       H  0.77000656  0.85004463  0.79451872     0.08900
H5056       H  0.74775190  0.87289727  0.79001286     0.05600
C5057       C  0.82397343  0.80377979  0.73244001    -0.20200
C5058       C  0.79887962  0.80660510  0.73502215    -0.06700
C5059       C  0.78622291  0.81970953  0.71718056     0.14100
C5060       C  0.79919234  0.83153830  0.69902568    -0.20200
C5061       C  0.82437663  0.82987671  0.69742359    -0.06700
C5062       C  0.83677116  0.81495938  0.71376353     0.14100
C5063       C  0.86346448  0.81056307  0.71135874    -0.23600
H5064       H  0.83380881  0.79319121  0.74542826     0.15400
H5065       H  0.78963145  0.84235143  0.68600954     0.15400
C5066       C  0.75904260  0.82050659  0.71628063    -0.23500
H5067       H  0.87008268  0.79762093  0.72494409     0.05700
H5068       H  0.87373721  0.82759983  0.71378091     0.08900
H5069       H  0.86728839  0.80296449  0.69332751     0.08900
H5070       H  0.75188383  0.83094613  0.73155572     0.08900
H5071       H  0.75158129  0.80190600  0.71655212     0.08900
H5072       H  0.75241991  0.82929191  0.69969954     0.05600
C5073       C  0.43339324  0.17318550  0.20133173    -0.20200
C5074       C  0.44943576  0.18603567  0.18651778    -0.06700
C5075       C  0.44482422  0.18674064  0.16151212     0.14100
C5076       C  0.42416923  0.17521931  0.15229195    -0.20200
C5077       C  0.40788621  0.16319411  0.16725453    -0.06700
C5078       C  0.41268134  0.16180899  0.19200161     0.14100
C5079       C  0.39611711  0.14817376  0.20848022    -0.23600
H5080       H  0.43656569  0.17269911  0.22049950     0.15400
H5081       H  0.42060281  0.17553383  0.13317589     0.15400
C5082       C  0.46155792  0.19920551  0.14425416    -0.23500
H5083       H  0.40274761  0.14859377  0.22729365     0.05700
H5084       H  0.39483440  0.12906385  0.20260925     0.08900
H5085       H  0.37786264  0.15625575  0.20816078     0.08900
H5086       H  0.48022902  0.19247910  0.14668619     0.08900
H5087       H  0.46110928  0.21898253  0.14711657     0.08900
H5088       H  0.45620974  0.19579146  0.12532098     0.05600
C5089       C  0.56150376  0.29143267  0.31113880    -0.20200
C5090       C  0.54675379  0.30384683  0.29491049    -0.06700
C5091       C  0.54975057  0.32889402  0.29208702     0.14100
C5092       C  0.56779408  0.34092198  0.30535842    -0.20200
C5093       C  0.58292060  0.32835386  0.32115005    -0.06700
C5094       C  0.57938237  0.30343722  0.32451308     0.14100
C5095       C  0.59422038  0.28960645  0.34238139    -0.23600
H5096       H  0.55933203  0.27209955  0.31293973     0.15400
H5097       H  0.57030497  0.36017542  0.30331316     0.15400
C5098       C  0.53466803  0.34267031  0.27441335    -0.23500
H5099       H  0.58846121  0.27045358  0.34331011     0.05700
H5100       H  0.59212904  0.29768697  0.36049791     0.08900
H5101       H  0.61353910  0.29009377  0.33728333     0.08900
H5102       H  0.51530452  0.34103265  0.27918120     0.08900
H5103       H  0.53741975  0.33533516  0.25607471     0.08900
H5104       H  0.53953831  0.36210643  0.27430492     0.05600
C5105       C  0.57191168  0.20483414  0.29761702    -0.20200
C5106       C  0.55722464  0.19030055  0.28269535    -0.06700
C5107       C  0.55213591  0.16630506  0.28969608     0.14100
C5108       C  0.56157433  0.15774658  0.31142058    -0.20200
C5109       C  0.57551232  0.17261911  0.32652702    -0.06700
C5110       C  0.58094225  0.19633712  0.31947363     0.14100
C5111       C  0.59640797  0.21258206  0.33496487    -0.23600
H5112       H  0.57547179  0.22337894  0.29272351     0.15400
H5113       H  0.55829517  0.13923873  0.31662502     0.15400
C5114       C  0.53725775  0.14943589  0.27425372    -0.23500
H5115       H  0.59915584  0.23049143  0.32664289     0.05700
H5116       H  0.61440407  0.20435112  0.33771746     0.08900
H5117       H  0.58763389  0.21529541  0.35261463     0.08900
H5118       H  0.54492462  0.14863931  0.25592249     0.08900
H5119       H  0.51825948  0.15552082  0.27340499     0.08900
H5120       H  0.53705914  0.13086038  0.28152921     0.05600
C5121       C  0.55027900  0.32730461  0.14909103    -0.20200
C5122       C  0.57493722  0.33151101  0.15248276    -0.06700
C5123       C  0.58875037  0.31502134  0.16589003     0.14100
C5124       C  0.57730389  0.29502509  0.17620327    -0.20200
C5125       C  0.55235533  0.29098012  0.17347276    -0.06700
C5126       C  0.53870795  0.30737109  0.15936322     0.14100
C5127       C  0.51178491  0.30489580  0.15568753    -0.23600
H5128       H  0.54001546  0.33986845  0.13836461     0.15400
H5129       H  0.58791730  0.28284939  0.18703667     0.15400
C5130       C  0.61549560  0.31820840  0.16998743    -0.23500
H5131       H  0.50438964  0.31961575  0.14450333     0.05700
H5132       H  0.50240724  0.30565654  0.17321700     0.08900
H5133       H  0.50757366  0.28765952  0.14633587     0.08900
H5134       H  0.61924280  0.31925714  0.18952872     0.08900
H5135       H  0.62288263  0.33476893  0.16172655     0.08900
H5136       H  0.62520922  0.30253576  0.16232637     0.05600
C5137       C  0.42285790  0.29814941  0.18640858    -0.20200
C5138       C  0.43972662  0.30820552  0.20253951    -0.06700
C5139       C  0.44279531  0.33346638  0.20349648     0.14100
C5140       C  0.42980536  0.34793043  0.18739560    -0.20200
C5141       C  0.41408286  0.33762414  0.17032709    -0.06700
C5142       C  0.40992349  0.31253239  0.17038549     0.14100
C5143       C  0.39205790  0.30088891  0.15339121    -0.23600
H5144       H  0.42051655  0.27874945  0.18570589     0.15400
H5145       H  0.43258081  0.36727054  0.18746724     0.15400
C5146       C  0.46074552  0.34504056  0.22038352    -0.23500
H5147       H  0.39063305  0.28115700  0.15628344     0.05700
H5148       H  0.39767022  0.30377062  0.13457247     0.08900
H5149       H  0.37393036  0.30881508  0.15615389     0.08900
H5150       H  0.47911656  0.33810617  0.21667128     0.08900
H5151       H  0.45580032  0.34089873  0.23916898     0.08900
H5152       H  0.46118506  0.36493371  0.21843073     0.05600
C5153       C  0.45803755  0.20289293  0.32023574    -0.20200
C5154       C  0.44551479  0.21731168  0.30381514    -0.06700
C5155       C  0.42042071  0.21413086  0.30087922     0.14100
C5156       C  0.40867760  0.19555268  0.31334807    -0.20200
C5157       C  0.42161373  0.18002997  0.32842043    -0.06700
C5158       C  0.44637272  0.18433883  0.33264866     0.14100
C5159       C  0.46052561  0.16916941  0.34995658    -0.23600
H5160       H  0.47740744  0.20516154  0.32214289     0.15400
H5161       H  0.38946540  0.19265892  0.31086467     0.15400
C5162       C  0.40636322  0.22952399  0.28372549    -0.23500
H5163       H  0.47963230  0.17521186  0.35134433     0.05700
H5164       H  0.46037258  0.15008518  0.34393636     0.08900
H5165       H  0.45236831  0.17043120  0.36805254     0.08900
H5166       H  0.41340269  0.22718505  0.26526643     0.08900
H5167       H  0.40812944  0.24874171  0.28912001     0.08900
H5168       H  0.38688449  0.22468369  0.28357285     0.05600
C5169       C  0.54280906  0.42009223  0.43964042    -0.20200
C5170       C  0.52846974  0.43636042  0.42656143    -0.06700
C5171       C  0.53543497  0.44212112  0.40280295     0.14100
C5172       C  0.55681954  0.43229899  0.39341411    -0.20200
C5173       C  0.57146463  0.41705609  0.40709996    -0.06700
C5174       C  0.56414118  0.41053983  0.43028904     0.14100
C5175       C  0.57882095  0.39336986  0.44515869    -0.23600
H5176       H  0.53796010  0.41550970  0.45784291     0.15400
H5177       H  0.56216685  0.43642095  0.37522948     0.15400
C5178       C  0.52029526  0.45794352  0.38693002    -0.23500
H5179       H  0.57043417  0.38999991  0.46287338     0.05700
H5180       H  0.59713502  0.40097606  0.44832426     0.08900
H5181       H  0.58038884  0.37583069  0.43564139     0.08900
H5182       H  0.52007045  0.47667176  0.39384732     0.08900
H5183       H  0.50158570  0.45073363  0.38593522     0.08900
H5184       H  0.52749715  0.45865803  0.36840256     0.05600
C5185       C  0.42841966  0.55843415  0.58258524    -0.20200
C5186       C  0.42223894  0.58134366  0.57425957    -0.06700
C5187       C  0.43436875  0.59108877  0.55426048     0.14100
C5188       C  0.45149172  0.57703094  0.54224728    -0.20200
C5189       C  0.45668053  0.55361193  0.54981300    -0.06700
C5190       C  0.44544036  0.54438147  0.57049117     0.14100
C5191       C  0.45074584  0.51930370  0.57919429    -0.23600
H5192       H  0.41936663  0.55131216  0.59821890     0.15400
H5193       H  0.45962481  0.58377883  0.52595166     0.15400
C5194       C  0.42903761  0.61579466  0.54463927    -0.23500
H5195       H  0.44065433  0.51503567  0.59580322     0.05700
H5196       H  0.47033086  0.51766390  0.58309466     0.08900
H5197       H  0.44552247  0.50581263  0.56531520     0.08900
H5198       H  0.41516659  0.62547582  0.55514106     0.08900
H5199       H  0.42248041  0.61418800  0.52585898     0.08900
H5200       H  0.44579684  0.62685726  0.54494275     0.05600
C5201       C  0.43568373  0.55066948  0.41001318    -0.20200
C5202       C  0.43248727  0.54764176  0.43476470    -0.06700
C5203       C  0.42041258  0.56594254  0.44798004     0.14100
C5204       C  0.41157740  0.58624967  0.43599180    -0.20200
C5205       C  0.41458416  0.58901103  0.41128328    -0.06700
C5206       C  0.42689816  0.57104035  0.39812320     0.14100
C5207       C  0.43106302  0.57280652  0.37151590    -0.23600
H5208       H  0.44530932  0.53710989  0.39983908     0.15400
H5209       H  0.40182467  0.59993602  0.44586949     0.15400
C5210       C  0.41737909  0.56483545  0.47482922    -0.23500
H5211       H  0.45070813  0.57183734  0.36783624     0.05700
H5212       H  0.42435606  0.58985579  0.36379415     0.08900
H5213       H  0.42181083  0.55757309  0.36223435     0.08900
H5214       H  0.43529036  0.56333098  0.48367970     0.08900
H5215       H  0.40585251  0.54920026  0.47963569     0.08900
H5216       H  0.40855818  0.58123796  0.48207745     0.05600
C5217       C  0.41796437  0.40277408  0.55787789    -0.20200
C5218       C  0.40621955  0.41718545  0.57495031    -0.06700
C5219       C  0.40333821  0.44197314  0.57049752     0.14100
C5220       C  0.41346394  0.45196257  0.54978543    -0.20200
C5221       C  0.42624680  0.43782341  0.53310064    -0.06700
C5222       C  0.42791778  0.41267422  0.53697851     0.14100
C5223       C  0.43958304  0.39600188  0.51908004    -0.23600
H5224       H  0.41923448  0.38356213  0.56095864     0.15400
H5225       H  0.41202849  0.47121434  0.54709606     0.15400
C5226       C  0.38918404  0.45786334  0.58725509    -0.23500
H5227       H  0.43705129  0.37680002  0.52400330     0.05700
H5228       H  0.45929091  0.39943352  0.51829292     0.08900
H5229       H  0.43136829  0.39861208  0.50110494     0.08900
H5230       H  0.39793793  0.45860256  0.60513524     0.08900
H5231       H  0.37054825  0.45068109  0.58908985     0.08900
H5232       H  0.38798852  0.47661334  0.58055016     0.05600
C5233       C  0.56615847  0.56387004  0.46140671    -0.20200
C5234       C  0.55680459  0.54213983  0.45244257    -0.06700
C5235       C  0.56631901  0.53282284  0.43079071     0.14100
C5236       C  0.58026024  0.54788640  0.41632694    -0.20200
C5237       C  0.58437679  0.57216231  0.42255009    -0.06700
C5238       C  0.58189309  0.57788758  0.44743022     0.14100
C5239       C  0.59828826  0.59500006  0.46095609    -0.23600
H5240       H  0.56175183  0.56960000  0.47946498     0.15400
H5241       H  0.58678037  0.54093685  0.39939487     0.15400
C5242       C  0.56193561  0.50714145  0.42272451    -0.23500
H5243       H  0.60673265  0.58534202  0.47618330     0.05700
H5244       H  0.58784074  0.61025916  0.46846446     0.08900
H5245       H  0.61348427  0.60154747  0.44989755     0.08900
H5246       H  0.54278103  0.50439451  0.41769660     0.08900
H5247       H  0.56693160  0.49457313  0.43729965     0.08900
H5248       H  0.57287239  0.50243576  0.40674802     0.05600
C5249       C  0.55555438  0.43476635  0.58390647    -0.20200
C5250       C  0.56890420  0.41629972  0.57304717    -0.06700
C5251       C  0.57124217  0.41549541  0.54793094     0.14100
C5252       C  0.55902280  0.43243994  0.53409895    -0.20200
C5253       C  0.54484958  0.45036586  0.54480574    -0.06700
C5254       C  0.54341762  0.45190178  0.57000990     0.14100
C5255       C  0.52833295  0.47081350  0.58217177    -0.23600
H5256       H  0.55440948  0.43551976  0.60328205     0.15400
H5257       H  0.56003645  0.43136676  0.51471495     0.15400
C5258       C  0.58672015  0.39688454  0.53575486    -0.23500
H5259       H  0.52886007  0.46904056  0.60198089     0.05700
H5260       H  0.50924655  0.46908976  0.57622653     0.08900
H5261       H  0.53524751  0.48900543  0.57758401     0.08900
H5262       H  0.57975477  0.37854320  0.53959529     0.08900
H5263       H  0.60558517  0.39849736  0.54238806     0.08900
H5264       H  0.58688395  0.39919263  0.51599760     0.05600
loop_ 
_geom_bond_atom_site_label_1 
_geom_bond_atom_site_label_2 
_geom_bond_distance 
_geom_bond_site_symmetry_2 
_ccdc_geom_bond_type 
O1           C17   1.275       .  A
O1           Zn7   2.027       .  S
C2           O18   1.277       .  A
C2           O15   1.274       .  A
C2         C5202   1.488       .  S
O3           C16   1.277       .  A
O3          Cd10   2.101       .  S
O4           C22   1.267       .  A
O4          Cd13   2.019       .  S
O5           C19   1.273       .  A
O5           Cd9   2.068       .  S
O6           C17   1.275       .  A
O6           Cd9   2.052       .  S
Zn7          O18   2.029       .  S
Zn7          O20   1.959       .  S
Zn7          O12   1.920       .  S
O8           C19   1.275       .  A
O8          Cd13   2.064       .  S
Cd9          O11   2.022       .  S
Cd9          O12   1.972       .  S
Cd10         O14   2.090       .  S
Cd10         O23   2.099       .  S
Cd10         O12   2.032       .  S
O11          C21   1.268       .  A
O12         Cd13   1.972       .  S
Cd13         O15   2.059       .  S
O14          C21   1.276       .  A
C16          O20   1.266       .  A
C16        C5234   1.477       .  S
C17        C5170   1.494       .  S
C19        C5221   1.490       .  S
C21        C5253   1.469       .  S
C22          O23   1.277       .  A
C22        C5189   1.463       .  S
O24          C40   1.274       .  A
O24         Zn30   2.012       .  S
C25          O41   1.270       .  A
C25          O38   1.276       .  A
C25        C5106   1.484       .  S
O26          C39   1.279       .  A
O26         Cd33   2.116       .  S
O27          C45   1.267       .  A
O27         Cd36   2.020       .  S
O28          C42   1.272       .  A
O28         Cd32   2.055       .  S
O29          C40   1.271       .  A
O29         Cd32   2.051       .  S
Zn30         O41   1.994       .  S
Zn30         O43   1.942       .  S
Zn30         O35   1.912       .  S
O31          C42   1.276       .  A
O31         Cd36   2.073       .  S
Cd32         O34   2.027       .  S
Cd32         O35   1.970       .  S
Cd33         O37   2.111       .  S
Cd33         O46   2.108       .  S
Cd33         O35   2.033       .  S
O34          C44   1.269       .  A
O35         Cd36   1.983       .  S
Cd36         O38   2.070       .  S
O37          C44   1.280       .  A
C39          O43   1.264       .  A
C39        C5154   1.469       .  S
C40        C5074   1.486       .  S
C42        C5125   1.490       .  S
C44        C5138   1.478       .  S
C45          O46   1.279       .  A
C45        C5090   1.469       .  S
C47        C5026   1.502       .  S
C47          N48   1.360       .  A
C47          N52   1.365       .  A
N48          C49   1.360       .  A
C49        C5042   1.496       .  S
C49          N50   1.360       .  A
N50          C51   1.361       .  A
C51        C5058   1.500       .  S
C51          N52   1.365       .  A
C53        C4994   1.501       .  S
C53          N54   1.357       .  A
C53          N58   1.359       .  A
N54          C55   1.359       .  A
C55        C5010   1.492   1_556  S
C55          N56   1.359       .  A
N56          C57   1.360       .  A
C57        C4978   1.488   1_565  S
C57          N58   1.359       .  A
C59        C4946   1.482       .  S
C59          N60   1.359       .  A
C59          N64   1.356       .  A
N60          C61   1.360       .  A
C61        C4962   1.503       .  S
C61          N62   1.364       .  A
N62          C63   1.363       .  A
C63        C4930   1.498       .  S
C63          N64   1.357       .  A
C65        C4882   1.507       .  S
C65          N66   1.363       .  A
C65          N70   1.362       .  A
N66          C67   1.363       .  A
C67        C4898   1.495       .  S
C67          N68   1.358       .  A
N68          C69   1.358       .  A
C69        C4914   1.489   1_565  S
C69          N70   1.360       .  A
N71          C76   1.354       .  A
N71          C75   1.355       .  A
N71         H103   1.038       .  S
N72          C79   1.352       .  A
N72          C80   1.352       .  A
N73          C78   1.351       .  A
N73          C77   1.350       .  A
N73         H104   1.039       .  S
N74          C81   1.352       .  A
N74          C82   1.353       .  A
C75          C83   1.386       .  A
C75          C91   1.420       .  A
C76          C92   1.422       .  A
C76          C84   1.389       .  A
C77          C85   1.388       .  A
C77          C94   1.412       .  A
C78          C93   1.410       .  A
C78          C86   1.387       .  A
C79          C91   1.417       .  A
C79          C87   1.387       .  A
C80          C94   1.414       .  A
C80          C88   1.385       .  A
C81          C89   1.387       .  A
C81          C92   1.418       .  A
C82          C90   1.385       .  A
C82          C93   1.416       .  A
C83          C84   1.374       .  A
C83          H95   1.082       .  S
C84          H96   1.081       .  S
C85          C86   1.372       .  A
C85          H97   1.082       .  S
C86          H98   1.082       .  S
C87          C88   1.377       .  A
C87          H99   1.082       .  S
C88         H100   1.082       .  S
C89          C90   1.376       .  A
C89         H101   1.082       .  S
C90         H102   1.082       .  S
C91        C4901   1.499       .  S
C92        C4965   1.493       .  S
C93        C4866   1.488       .  S
C94        C4850   1.484       .  S
N105        C110   1.354       .  A
N105        C109   1.354       .  A
N105        H137   1.035       .  S
N106        C113   1.351       .  A
N106        C114   1.352       .  A
N107        C112   1.350       .  A
N107        C111   1.350       .  A
N107        H138   1.037       .  S
N108        C115   1.351       .  A
N108        C116   1.350       .  A
C109        C117   1.389       .  A
C109        C125   1.420       .  A
C110        C126   1.416       .  A
C110        C118   1.386       .  A
C111        C119   1.387       .  A
C111        C128   1.409       .  A
C112        C127   1.408       .  A
C112        C120   1.386       .  A
C113        C125   1.418       .  A
C113        C121   1.388       .  A
C114        C128   1.412       .  A
C114        C122   1.384       .  A
C115        C123   1.386       .  A
C115        C126   1.412       .  A
C116        C124   1.386       .  A
C116        C127   1.412       .  A
C117        C118   1.376       .  A
C117        H129   1.082       .  S
C118        H130   1.083       .  S
C119        C120   1.371       .  A
C119        H131   1.082       .  S
C120        H132   1.082       .  S
C121        C122   1.377       .  A
C121        H133   1.082       .  S
C122        H134   1.082       .  S
C123        C124   1.374       .  A
C123        H135   1.082       .  S
C124        H136   1.082       .  S
C125       C4949   1.494       .  S
C126       C5013   1.489       .  S
C127       C4821   1.482       .  S
C128       C4834   1.484       .  S
N139        C144   1.357       .  A
N139        C143   1.356       .  A
N139        H171   1.035       .  S
N140        C147   1.355       .  A
N140        C148   1.355       .  A
N141        C146   1.352       .  A
N141        C145   1.352       .  A
N141        H172   1.036       .  S
N142        C149   1.354       .  A
N142        C150   1.354       .  A
C143        C151   1.388       .  A
C143        C159   1.424       .  A
C144        C160   1.423       .  A
C144        C152   1.388       .  A
C145        C153   1.387       .  A
C145        C162   1.412       .  A
C146        C161   1.413       .  A
C146        C154   1.387       .  A
C147        C159   1.421       .  A
C147        C155   1.387       .  A
C148        C162   1.419       .  A
C148        C156   1.385       .  A
C149        C157   1.387       .  A
C149        C160   1.419       .  A
C150        C158   1.386       .  A
C150        C161   1.419       .  A
C151        C152   1.376       .  A
C151        H163   1.082       .  S
C152        H164   1.082       .  S
C153        C154   1.373       .  A
C153        H165   1.082       .  S
C154        H166   1.082       .  S
C155        C156   1.376       .  A
C155        H167   1.082       .  S
C156        H168   1.082       .  S
C157        C158   1.376       .  A
C157        H169   1.082       .  S
C158        H170   1.082       .  S
C159       C5061   1.503       .  S
C160       C4885   1.498       .  S
C161       C4789   1.491       .  S
C162       C4802   1.492       .  S
N173        C178   1.354       .  A
N173        C177   1.355       .  A
N173        H205   1.036       .  S
N174        C181   1.354       .  A
N174        C182   1.352       .  A
N175        C180   1.352       .  A
N175        C179   1.350       .  A
N175        H206   1.036       .  S
N176        C183   1.352       .  A
N176        C184   1.353       .  A
C177        C185   1.386       .  A
C177        C193   1.417       .  A
C178        C194   1.418       .  A
C178        C186   1.388       .  A
C179        C187   1.388       .  A
C179        C196   1.411       .  A
C180        C195   1.411       .  A
C180        C188   1.386       .  A
C181        C193   1.416       .  A
C181        C189   1.386       .  A
C182        C196   1.417       .  A
C182        C190   1.387       .  A
C183        C191   1.386       .  A
C183        C194   1.416       .  A
C184        C192   1.386       .  A
C184        C195   1.417       .  A
C185        C186   1.376       .  A
C185        H197   1.082       .  S
C186        H198   1.082       .  S
C187        C188   1.372       .  A
C187        H199   1.082       .  S
C188        H200   1.082       .  S
C189        C190   1.376       .  A
C189        H201   1.082       .  S
C190        H202   1.082       .  S
C191        C192   1.377       .  A
C191        H203   1.082       .  S
C192        H204   1.082       .  S
C193       C5029   1.497       .  S
C194       C4933   1.490       .  S
C195       C4770   1.491       .  S
C196       C4754   1.484       .  S
N207        C212   1.354       .  A
N207        C211   1.355       .  A
N207        H239   1.037       .  S
N208        C215   1.352       .  A
N208        C216   1.351       .  A
N209        C214   1.351       .  A
N209        C213   1.347       .  A
N209        H240   1.038       .  S
N210        C217   1.349       .  A
N210        C218   1.352       .  A
C211        C219   1.387       .  A
C211        C227   1.420       .  A
C212        C228   1.418       .  A
C212        C220   1.387       .  A
C213        C221   1.387       .  A
C213        C230   1.406       .  A
C214        C229   1.407       .  A
C214        C222   1.386       .  A
C215        C227   1.416       .  A
C215        C223   1.386       .  A
C216        C230   1.414       .  A
C216        C224   1.386       .  A
C217        C225   1.388       .  A
C217        C228   1.414       .  A
C218        C226   1.385       .  A
C218        C229   1.413       .  A
C219        C220   1.376       .  A
C219        H231   1.082       .  S
C220        H232   1.082       .  S
C221        C222   1.372       .  A
C221        H233   1.082       .  S
C222        H234   1.082       .  S
C223        C224   1.377       .  A
C223        H235   1.082       .  S
C224        H236   1.082       .  S
C225        C226   1.375       .  A
C225        H237   1.082       .  S
C226        H238   1.082       .  S
C227       C5045   1.499       .  S
C228       C4997   1.486       .  S
C229       C4722   1.487       .  S
C230       C4738   1.479       .  S
N241        C246   1.353       .  A
N241        C245   1.354       .  A
N241        H273   1.039       .  S
N242        C249   1.348       .  A
N242        C250   1.349       .  A
N243        C248   1.349       .  A
N243        C247   1.349       .  A
N243        H274   1.038       .  S
N244        C251   1.350       .  A
N244        C252   1.351       .  A
C245        C253   1.387       .  A
C245        C261   1.416       .  A
C246        C262   1.415       .  A
C246        C254   1.387       .  A
C247        C255   1.387       .  A
C247        C264   1.407       .  A
C248        C263   1.407       .  A
C248        C256   1.387       .  A
C249        C261   1.410       .  A
C249        C257   1.387       .  A
C250        C264   1.408       .  A
C250        C258   1.385       .  A
C251        C259   1.387       .  A
C251        C262   1.413       .  A
C252        C260   1.385       .  A
C252        C263   1.411       .  A
C253        C254   1.377       .  A
C253        H265   1.082       .  S
C254        H266   1.082       .  S
C255        C256   1.372       .  A
C255        H267   1.082       .  S
C256        H268   1.082       .  S
C257        C258   1.376       .  A
C257        H269   1.082       .  S
C258        H270   1.082       .  S
C259        C260   1.378       .  A
C259        H271   1.082       .  S
C260        H272   1.082       .  S
C261       C4981   1.489       .  S
C262       C4917   1.491       .  S
C263       C4690   1.482       .  S
C264       C4706   1.479       .  S
O275        C291   1.271       .  A
O275       Zn281   1.989       .  S
C276        O292   1.273       .  A
C276        O289   1.275       .  A
C276       C4661   1.486       .  S
O277        C290   1.280       .  A
O277       Cd284   2.115       .  S
O278        C296   1.270       .  A
O278       Cd287   2.032       .  S
O279        C293   1.275       .  A
O279       Cd283   2.049       .  S
O280        C291   1.273       .  A
O280       Cd283   2.070       .  S
Zn281       O292   2.002       .  S
Zn281       O294   1.939       .  S
Zn281       O286   1.910       .  S
O282        C293   1.274       .  A
O282       Cd287   2.073       .  S
Cd283       O285   2.028       .  S
Cd283       O286   1.973       .  S
Cd284       O288   2.116       .  S
Cd284       O297   2.117       .  S
Cd284       O286   2.022       .  S
O285        C295   1.269       .  A
O286       Cd287   1.970       .  S
Cd287       O289   2.071       .  S
O288        C295   1.281       .  A
C290        O294   1.264       .  A
C290       C4626   1.468       .  S
C291       C4610   1.484       .  S
C293       C4594   1.490       .  S
C295       C4677   1.478       .  S
C296        O297   1.281       .  A
C296       C4642   1.476       .  S
O298        C314   1.272       .  A
O298       Zn304   2.006       .  S
C299        O315   1.274       .  A
C299        O312   1.272       .  A
C299       C4498   1.477       .  S
O300        C313   1.279       .  A
O300       Cd307   2.111       .  S
O301        C319   1.267       .  A
O301       Cd310   2.020       .  S
O302        C316   1.271       .  A
O302       Cd306   2.050       .  S
O303        C314   1.272       .  A
O303       Cd306   2.052       .  S
Zn304       O315   2.001       .  S
Zn304       O317   1.958       .  S
Zn304       O309   1.910       .  S
O305        C316   1.274       .  A
O305       Cd310   2.063       .  S
Cd306       O308   2.016       .  S
Cd306       O309   1.974       .  S
Cd307       O311   2.099       .  S
Cd307       O320   2.112       .  S
Cd307       O309   2.021       .  S
O308        C318   1.266       .  A
O309       Cd310   1.970       .  S
Cd310       O312   2.048       .  S
O311        C318   1.278       .  A
C313        O317   1.266       .  A
C313       C4565   1.467       .  S
C314       C4517   1.474       .  S
C316       C4578   1.492       .  S
C318       C4533   1.468       .  S
C319        O320   1.280       .  A
C319       C4549   1.468       .  S
O321        C337   1.272       .  A
O321       Zn327   2.000       .  S
C322        O338   1.272       .  A
C322        O335   1.274       .  A
C322       C4450   1.491       .  S
O323        C336   1.277       .  A
O323       Cd330   2.100       .  S
O324        C342   1.267       .  A
O324       Cd333   2.013       .  S
O325        C339   1.272       .  A
O325       Cd329   2.052       .  S
O326        C337   1.270       .  A
O326       Cd329   2.044       .  S
Zn327       O338   1.989       .  S
Zn327       O340   1.947       .  S
Zn327       O332   1.909       .  S
O328        C339   1.276       .  A
O328       Cd333   2.065       .  S
Cd329       O331   2.018       .  S
Cd329       O332   1.965       .  S
Cd330       O334   2.110       .  S
Cd330       O343   2.109       .  S
Cd330       O332   2.031       .  S
O331        C341   1.267       .  A
O332       Cd333   1.974       .  S
Cd333       O335   2.075       .  S
O334        C341   1.279       .  A
C336        O340   1.265       .  A
C336       C4466   1.461       .  S
C337       C4741   1.477       .  S
C339       C4434   1.493       .  S
C341       C4482   1.469       .  S
C342        O343   1.279       .  A
C342       C4418   1.466       .  S
O344        C360   1.271       .  A
O344       Zn350   2.005       .  S
C345        O361   1.271       .  A
C345        O358   1.274       .  A
C345       C4341   1.485       .  S
O346        C359   1.280       .  A
O346       Cd353   2.119       .  S
O347        C365   1.265       .  A
O347       Cd356   2.007       .  S
O348        C362   1.269       .  A
O348       Cd352   2.042   1_554  S
O349        C360   1.271       .  A
O349       Cd352   2.038       .  S
Zn350       O361   1.993   1_556  S
Zn350       O363   1.952       .  S
Zn350       O355   1.917   1_556  S
O351        C362   1.274       .  A
O351       Cd356   2.064       .  S
Cd352       O354   2.007       .  S
Cd352       O355   1.960   1_556  S
Cd353       O357   2.114       .  S
Cd353       O366   2.119   1_556  S
Cd353       O355   2.034   1_556  S
O354        C364   1.266       .  A
O355       Cd356   1.970       .  S
Cd356       O358   2.047       .  S
O357        C364   1.280       .  A
C359        O363   1.265       .  A
C359       C4869   1.471       .  S
C360       C4354   1.484       .  S
C362       C4386   1.485       .  S
C364       C4373   1.467       .  S
C365        O366   1.281       .  A
C365       C4402   1.469       .  S
O367        C383   1.274       .  A
O367       Zn373   2.020   1_455  S
C368        O384   1.274       .  A
C368        O381   1.272       .  A
C368       C4290   1.479       .  S
O369        C382   1.280   1_556  A
O369       Cd376   2.122       .  S
O370        C388   1.267       .  A
O370       Cd379   2.014       .  S
O371        C385   1.271       .  A
O371       Cd375   2.045       .  S
O372        C383   1.268       .  A
O372       Cd375   2.036   1_554  S
Zn373       O384   2.001       .  S
Zn373       O386   1.950       .  S
Zn373       O378   1.913   1_554  S
O374        C385   1.271       .  A
O374       Cd379   2.062   1_455  S
Cd375       O377   2.001       .  S
Cd375       O378   1.966   1_455  S
Cd376       O380   2.124   1_655  S
Cd376       O389   2.139       .  S
Cd376       O378   2.036       .  S
O377        C387   1.265       .  A
O378       Cd379   1.975       .  S
Cd379       O381   2.049   1_556  S
O380        C387   1.282       .  A
C382        O386   1.264       .  A
C382       C4322   1.472       .  S
C383       C4258   1.487       .  S
C385       C4274   1.480       .  S
C387       C4306   1.469       .  S
C388        O389   1.284       .  A
C388       C4773   1.475       .  S
O390        C406   1.272       .  A
O390       Zn396   2.004       .  S
C391        O407   1.274       .  A
C391        O404   1.272       .  A
C391       C4229   1.494       .  S
O392        C405   1.275       .  A
O392       Cd399   2.089       .  S
O393        C411   1.266       .  A
O393       Cd402   2.014       .  S
O394        C408   1.274       .  A
O394       Cd398   2.058   1_565  S
O395        C406   1.274       .  A
O395       Cd398   2.051       .  S
Zn396       O407   2.014   1_545  S
Zn396       O409   1.938       .  S
Zn396       O401   1.907       .  S
O397        C408   1.272       .  A
O397       Cd402   2.060       .  S
Cd398       O400   2.017       .  S
Cd398       O401   1.965       .  S
Cd399       O403   2.093       .  S
Cd399       O412   2.092       .  S
Cd399       O401   2.028       .  S
O400        C410   1.268       .  A
O401       Cd402   1.966   1_545  S
Cd402       O404   2.055       .  S
O403        C410   1.277       .  A
C405        O409   1.264       .  A
C405       C4210   1.457       .  S
C406       C4242   1.486       .  S
C408       C4853   1.490       .  S
C410       C4178   1.470       .  S
C411        O412   1.276   1_565  A
C411       C4194   1.459       .  S
O413        C429   1.270       .  A
O413       Zn419   1.982       .  S
C414        O430   1.269       .  A
C414        O427   1.272       .  A
C414       C4130   1.487       .  S
O415        C428   1.284       .  A
O415       Cd422   2.144       .  S
O416        C434   1.267       .  A
O416       Cd425   2.013       .  S
O417        C431   1.271       .  A
O417       Cd421   2.055       .  S
O418        C429   1.271       .  A
O418       Cd421   2.052       .  S
Zn419       O430   1.973       .  S
Zn419       O432   1.955       .  S
Zn419       O424   1.910       .  S
O420        C431   1.274       .  A
O420       Cd425   2.062       .  S
Cd421       O423   2.017       .  S
Cd421       O424   1.971       .  S
Cd422       O426   2.139       .  S
Cd422       O435   2.135       .  S
Cd422       O424   2.032       .  S
O423        C433   1.268       .  A
O424       Cd425   1.980       .  S
Cd425       O427   2.063       .  S
O426        C433   1.285       .  A
C428        O432   1.265       .  A
C428       C4114   1.483       .  S
C429       C4146   1.480       .  S
C431       C4162   1.489       .  S
C433       C4098   1.482       .  S
C434        O435   1.284       .  A
C434       C4805   1.475       .  S
O436        C452   1.274       .  A
O436       Zn442   2.002   1_455  S
C437        O453   1.275       .  A
C437        O450   1.267       .  A
C437       C4037   1.487       .  S
O438        C451   1.280       .  A
O438       Cd445   2.121       .  S
O439        C457   1.267       .  A
O439       Cd448   2.010       .  S
O440        C454   1.271       .  A
O440       Cd444   2.058       .  S
O441        C452   1.271       .  A
O441       Cd444   2.038   1_455  S
Zn442       O453   2.011       .  S
Zn442       O455   1.959   1_655  S
Zn442       O447   1.913       .  S
O443        C454   1.271       .  A
O443       Cd448   2.057       .  S
Cd444       O446   1.998   1_655  S
Cd444       O447   1.963       .  S
Cd445       O449   2.113       .  S
Cd445       O458   2.107   1_455  S
Cd445       O447   2.034   1_455  S
O446        C456   1.265       .  A
O447       Cd448   1.962       .  S
Cd448       O450   2.024       .  S
O449        C456   1.280       .  A
C451        O455   1.265       .  A
C451       C4082   1.482       .  S
C452       C4069   1.473       .  S
C454       C4837   1.487       .  S
C456       C4021   1.462       .  S
C457        O458   1.280       .  A
C457       C4053   1.467       .  S
O459        C475   1.278       .  A
O459       Zn465   2.032       .  S
C460        O476   1.277       .  A
C460        O473   1.272       .  A
C460       C3970   1.495       .  S
O461        C474   1.280       .  A
O461       Cd468   2.113       .  S
O462        C480   1.266       .  A
O462       Cd471   2.012   1_565  S
O463        C477   1.273       .  A
O463       Cd467   2.064       .  S
O464        C475   1.273       .  A
O464       Cd467   2.055   1_556  S
Zn465       O476   2.035   1_546  S
Zn465       O478   1.960   1_545  S
Zn465       O470   1.924   1_556  S
O466        C477   1.274       .  A
O466       Cd471   2.060       .  S
Cd467       O469   2.016   1_554  S
Cd467       O470   1.978       .  S
Cd468       O472   2.119   1_565  S
Cd468       O481   2.114   1_556  S
Cd468       O470   2.038   1_566  S
O469        C479   1.266       .  A
O470       Cd471   1.972       .  S
Cd471       O473   2.054   1_545  S
O472        C479   1.280       .  A
C474        O478   1.267       .  A
C474       C4725   1.475       .  S
C475       C3954   1.492       .  S
C477       C3938   1.491       .  S
C479       C4005   1.472       .  S
C480        O481   1.280       .  A
C480       C3986   1.466       .  S
C482       C3906   1.504       .  S
C482        N483   1.362       .  A
C482        N487   1.363       .  A
N483        C484   1.363       .  A
C484       C3922   1.506       .  S
C484        N485   1.360       .  A
N485        C486   1.362       .  A
C486       C3893   1.491       .  S
C486        N487   1.362       .  A
N488        C493   1.355       .  A
N488        C492   1.355       .  A
N488        H520   1.038       .  S
N489        C496   1.352       .  A
N489        C497   1.352       .  A
N490        C495   1.351       .  A
N490        C494   1.352       .  A
N490        H521   1.038       .  S
N491        C498   1.353       .  A
N491        C499   1.353       .  A
C492        C500   1.386       .  A
C492        C508   1.417       .  A
C493        C509   1.418       .  A
C493        C501   1.387       .  A
C494        C502   1.387       .  A
C494        C511   1.410       .  A
C495        C510   1.412       .  A
C495        C503   1.388       .  A
C496        C508   1.416       .  A
C496        C504   1.386       .  A
C497        C511   1.416       .  A
C497        C505   1.386       .  A
C498        C506   1.387       .  A
C498        C509   1.419       .  A
C499        C507   1.385       .  A
C499        C510   1.416       .  A
C500        C501   1.375       .  A
C500        H512   1.082       .  S
C501        H513   1.082       .  S
C502        C503   1.370       .  A
C502        H514   1.082       .  S
C503        H515   1.082       .  S
C504        C505   1.378       .  A
C504        H516   1.082       .  S
C505        H517   1.082       .  S
C506        C507   1.378       .  A
C506        H518   1.082       .  S
C507        H519   1.082       .  S
C508       C3909   1.496       .  S
C509       C3874   1.501       .  S
C510       C5205   1.490       .  S
C511       C4629   1.488       .  S
C522       C3826   1.502       .  S
C522        N523   1.358       .  A
C522        N527   1.364       .  A
N523        C524   1.358       .  A
C524       C3842   1.489       .  S
C524        N525   1.358       .  A
N525        C526   1.359       .  A
C526       C3861   1.501   1_565  S
C526        N527   1.364       .  A
N528        C533   1.355       .  A
N528        C532   1.357       .  A
N528        H560   1.036       .  S
N529        C536   1.353       .  A
N529        C537   1.353       .  A
N530        C535   1.353       .  A
N530        C534   1.349       .  A
N530        H561   1.036       .  S
N531        C538   1.352       .  A
N531        C539   1.354       .  A
C532        C540   1.387       .  A
C532        C548   1.422       .  A
C533        C549   1.422       .  A
C533        C541   1.388       .  A
C534        C542   1.388       .  A
C534        C551   1.411       .  A
C535        C550   1.412       .  A
C535        C543   1.386       .  A
C536        C548   1.418       .  A
C536        C544   1.387       .  A
C537        C551   1.417       .  A
C537        C545   1.386       .  A
C538        C546   1.387       .  A
C538        C549   1.417       .  A
C539        C547   1.385       .  A
C539        C550   1.417       .  A
C540        C541   1.377       .  A
C540        H552   1.082       .  S
C541        H553   1.082       .  S
C542        C543   1.372       .  A
C542        H554   1.082       .  S
C543        H555   1.082       .  S
C544        C545   1.375       .  A
C544        H556   1.082       .  S
C545        H557   1.083       .  S
C546        C547   1.375       .  A
C546        H558   1.082       .  S
C547        H559   1.082       .  S
C548       C3829   1.500       .  S
C549       C3810   1.494       .  S
C550       C4117   1.496       .  S
C551       C3794   1.482       .  S
N562        C567   1.354       .  A
N562        C566   1.353       .  A
N562        H594   1.036       .  S
N563        C570   1.351       .  A
N563        C571   1.352       .  A
N564        C569   1.350       .  A
N564        C568   1.352       .  A
N564        H595   1.037       .  S
N565        C572   1.354       .  A
N565        C573   1.353       .  A
C566        C574   1.388       .  A
C566        C582   1.418       .  A
C567        C583   1.418       .  A
C567        C575   1.387       .  A
C568        C576   1.387       .  A
C568        C585   1.410       .  A
C569        C584   1.411       .  A
C569        C577   1.388       .  A
C570        C582   1.415       .  A
C570        C578   1.387       .  A
C571        C585   1.414       .  A
C571        C579   1.385       .  A
C572        C580   1.386       .  A
C572        C583   1.417       .  A
C573        C581   1.386       .  A
C573        C584   1.417       .  A
C574        C575   1.377       .  A
C574        H586   1.082       .  S
C575        H587   1.082       .  S
C576        C577   1.370       .  A
C576        H588   1.082       .  S
C577        H589   1.082       .  S
C578        C579   1.375       .  A
C578        H590   1.082       .  S
C579        H591   1.082       .  S
C580        C581   1.377       .  A
C580        H592   1.082       .  S
C581        H593   1.082       .  S
C582       C3845   1.489       .  S
C583       C3925   1.496       .  S
C584       C4405   1.487       .  S
C585       C3989   1.487       .  S
C596       C3781   1.487       .  S
C596        N597   1.361       .  A
C596        N601   1.362       .  A
N597        C598   1.359       .  A
C598       C3749   1.498       .  S
C598        N599   1.358       .  A
N599        C600   1.357       .  A
C600       C3762   1.495   1_565  S
C600        N601   1.362       .  A
C602       C3730   1.510       .  S
C602        N603   1.363       .  A
C602        N607   1.362       .  A
N603        C604   1.363       .  A
C604       C3877   1.493       .  S
C604        N605   1.359       .  A
N605        C606   1.359       .  A
C606       C3813   1.502       .  S
C606        N607   1.361       .  A
N608        C613   1.355       .  A
N608        C612   1.356       .  A
N608        H640   1.035       .  S
N609        C616   1.352       .  A
N609        C617   1.352       .  A
N610        C615   1.352       .  A
N610        C614   1.351       .  A
N610        H641   1.035       .  S
N611        C618   1.351       .  A
N611        C619   1.353       .  A
C612        C620   1.387       .  A
C612        C628   1.419       .  A
C613        C629   1.420       .  A
C613        C621   1.388       .  A
C614        C622   1.387       .  A
C614        C631   1.411       .  A
C615        C630   1.412       .  A
C615        C623   1.388       .  A
C616        C628   1.416       .  A
C616        C624   1.387       .  A
C617        C631   1.414       .  A
C617        C625   1.385       .  A
C618        C626   1.387       .  A
C618        C629   1.416       .  A
C619        C627   1.385       .  A
C619        C630   1.415       .  A
C620        C621   1.375       .  A
C620        H632   1.082       .  S
C621        H633   1.082       .  S
C622        C623   1.369       .  A
C622        H634   1.082       .  S
C623        H635   1.082       .  S
C624        C625   1.377       .  A
C624        H636   1.082       .  S
C625        H637   1.082       .  S
C626        C627   1.376       .  A
C626        H638   1.082       .  S
C627        H639   1.082       .  S
C628       C3733   1.494       .  S
C629       C3746   1.491       .  S
C630       C4226   1.487       .  S
C631       C4437   1.483       .  S
N642        C647   1.355       .  A
N642        C646   1.356       .  A
N642        H674   1.035       .  S
N643        C650   1.353       .  A
N643        C651   1.353       .  A
N644        C649   1.350       .  A
N644        C648   1.351       .  A
N644        H675   1.035       .  S
N645        C652   1.353       .  A
N645        C653   1.354       .  A
C646        C654   1.387       .  A
C646        C662   1.421       .  A
C647        C663   1.422       .  A
C647        C655   1.388       .  A
C648        C656   1.387       .  A
C648        C665   1.410       .  A
C649        C664   1.411       .  A
C649        C657   1.387       .  A
C650        C662   1.418       .  A
C650        C658   1.387       .  A
C651        C665   1.416       .  A
C651        C659   1.385       .  A
C652        C660   1.387       .  A
C652        C663   1.420       .  A
C653        C661   1.386       .  A
C653        C664   1.419       .  A
C654        C655   1.377       .  A
C654        H666   1.082       .  S
C655        H667   1.082       .  S
C656        C657   1.371       .  A
C656        H668   1.082       .  S
C657        H669   1.082       .  S
C658        C659   1.373       .  A
C658        H670   1.082       .  S
C659        H671   1.082       .  S
C660        C661   1.376       .  A
C660        H672   1.082       .  S
C661        H673   1.082       .  S
C662       C3765   1.497       .  S
C663       C3858   1.497       .  S
C664       C5157   1.489       .  S
C665       C4562   1.486       .  S
N676        C681   1.351       .  A
N676        C680   1.355       .  A
N676        H708   1.042       .  S
N677        C684   1.351       .  A
N677        C685   1.349       .  A
N678        C683   1.350       .  A
N678        C682   1.346       .  A
N678        H709   1.042       .  S
N679        C686   1.350       .  A
N679        C687   1.353       .  A
C680        C688   1.386       .  A
C680        C696   1.416       .  A
C681        C697   1.418       .  A
C681        C689   1.389       .  A
C682        C690   1.389       .  A
C682        C699   1.407       .  A
C683        C698   1.405       .  A
C683        C691   1.385       .  A
C684        C696   1.413       .  A
C684        C692   1.387       .  A
C685        C699   1.409       .  A
C685        C693   1.386       .  A
C686        C694   1.387       .  A
C686        C697   1.416       .  A
C687        C695   1.384       .  A
C687        C698   1.413       .  A
C688        C689   1.378       .  A
C688        H700   1.082       .  S
C689        H701   1.082       .  S
C690        C691   1.373       .  A
C690        H702   1.082       .  S
C691        H703   1.082       .  S
C692        C693   1.376       .  A
C692        H704   1.082       .  S
C693        H705   1.082       .  S
C694        C695   1.379       .  A
C694        H706   1.082       .  S
C695        H707   1.082       .  S
C696       C3890   1.499       .  S
C697       C3778   1.495       .  S
C698       C3714   1.490       .  S
C699       C4066   1.475       .  S
O710        C726   1.271       .  A
O710       Zn716   2.006       .  S
C711        O727   1.268       .  A
C711        O724   1.273       .  A
C711       C3685   1.487       .  S
O712        C725   1.279       .  A
O712       Cd719   2.106       .  S
O713        C731   1.267       .  A
O713       Cd722   2.014   1_565  S
O714        C728   1.268       .  A
O714       Cd718   2.035       .  S
O715        C726   1.270       .  A
O715       Cd718   2.033       .  S
Zn716       O727   1.983   1_545  S
Zn716       O729   1.930   1_545  S
Zn716       O721   1.905       .  S
O717        C728   1.274       .  A
O717       Cd722   2.049       .  S
Cd718       O720   2.012       .  S
Cd718       O721   1.954       .  S
Cd719       O723   2.112   1_565  S
Cd719       O732   2.099       .  S
Cd719       O721   2.027   1_565  S
O720        C730   1.267       .  A
O721       Cd722   1.969       .  S
Cd722       O724   2.052   1_545  S
O723        C730   1.280       .  A
C725        O729   1.263       .  A
C725       C3797   1.460       .  S
C726       C3666   1.487       .  S
C728       C3650   1.478       .  S
C730       C3698   1.465       .  S
C731        O732   1.278       .  A
C731       C4818   1.463       .  S
O733        C749   1.274       .  A
O733       Zn739   2.005       .  S
C734        O750   1.274       .  A
C734        O747   1.273       .  A
C734       C3637   1.486       .  S
O735        C748   1.276       .  A
O735       Cd742   2.097       .  S
O736        C754   1.268       .  A
O736       Cd745   2.026   1_554  S
O737        C751   1.271       .  A
O737       Cd741   2.051       .  S
O738        C749   1.271       .  A
O738       Cd741   2.053       .  S
Zn739       O750   1.999   1_556  S
Zn739       O752   1.944   1_556  S
Zn739       O744   1.905       .  S
O740        C751   1.277       .  A
O740       Cd745   2.073       .  S
Cd741       O743   2.009       .  S
Cd741       O744   1.963       .  S
Cd742       O746   2.095   1_554  S
Cd742       O755   2.094       .  S
Cd742       O744   2.026   1_554  S
O743        C753   1.266       .  A
O744       Cd745   1.969       .  S
Cd745       O747   2.052   1_556  S
O746        C753   1.278       .  A
C748        O752   1.264       .  A
C748       C3573   1.462       .  S
C749       C4709   1.491       .  S
C751       C3621   1.492       .  S
C753       C3589   1.464       .  S
C754        O755   1.277       .  A
C754       C3605   1.464       .  S
C756       C3522   1.494       .  S
C756        N757   1.362       .  A
C756        N761   1.360       .  A
N757        C758   1.364       .  A
C758       C3541   1.506       .  S
C758        N759   1.360       .  A
N759        C760   1.360       .  A
C760       C3554   1.497       .  S
C760        N761   1.359       .  A
C762       C3477   1.498       .  S
C762        N763   1.358       .  A
C762        N767   1.364       .  A
N763        C764   1.358       .  A
C764       C3506   1.494       .  S
C764        N765   1.361       .  A
N765        C766   1.363       .  A
C766       C3490   1.509   1_556  S
C766        N767   1.366       .  A
C768       C3458   1.504       .  S
C768        N769   1.363       .  A
C768        N773   1.360       .  A
N769        C770   1.365       .  A
C770       C3442   1.501       .  S
C770        N771   1.361       .  A
N771        C772   1.360       .  A
C772       C3429   1.484       .  S
C772        N773   1.357       .  A
C774       C3394   1.495       .  S
C774        N775   1.363       .  A
C774        N779   1.359       .  A
N775        C776   1.362       .  A
C776       C3410   1.489   1_556  S
C776        N777   1.358       .  A
N777        C778   1.356       .  A
C778       C3378   1.493       .  S
C778        N779   1.360       .  A
N780        C785   1.355       .  A
N780        C784   1.353       .  A
N780        H812   1.036       .  S
N781        C788   1.352       .  A
N781        C789   1.352       .  A
N782        C787   1.350       .  A
N782        C786   1.352       .  A
N782        H813   1.037       .  S
N783        C790   1.352       .  A
N783        C791   1.352       .  A
C784        C792   1.387       .  A
C784        C800   1.418       .  A
C785        C801   1.419       .  A
C785        C793   1.387       .  A
C786        C794   1.386       .  A
C786        C803   1.408       .  A
C787        C802   1.411       .  A
C787        C795   1.388       .  A
C788        C800   1.416       .  A
C788        C796   1.387       .  A
C789        C803   1.414       .  A
C789        C797   1.385       .  A
C790        C798   1.387       .  A
C790        C801   1.417       .  A
C791        C799   1.385       .  A
C791        C802   1.415       .  A
C792        C793   1.376       .  A
C792        H804   1.082       .  S
C793        H805   1.082       .  S
C794        C795   1.369       .  A
C794        H806   1.082       .  S
C795        H807   1.082       .  S
C796        C797   1.375       .  A
C796        H808   1.082       .  S
C797        H809   1.082       .  S
C798        C799   1.376       .  A
C798        H810   1.082       .  S
C799        H811   1.082       .  S
C800       C3381   1.492       .  S
C801       C3445   1.496       .  S
C802       C4453   1.484       .  S
C803       C4370   1.486       .  S
N814        C819   1.355       .  A
N814        C818   1.354       .  A
N814        H846   1.038       .  S
N815        C822   1.352       .  A
N815        C823   1.352       .  A
N816        C821   1.351       .  A
N816        C820   1.350       .  A
N816        H847   1.038       .  S
N817        C824   1.351       .  A
N817        C825   1.351       .  A
C818        C826   1.387       .  A
C818        C834   1.419       .  A
C819        C835   1.419       .  A
C819        C827   1.387       .  A
C820        C828   1.387       .  A
C820        C837   1.409       .  A
C821        C836   1.410       .  A
C821        C829   1.387       .  A
C822        C834   1.416       .  A
C822        C830   1.387       .  A
C823        C837   1.413       .  A
C823        C831   1.385       .  A
C824        C832   1.387       .  A
C824        C835   1.416       .  A
C825        C833   1.385       .  A
C825        C836   1.413       .  A
C826        C827   1.378       .  A
C826        H838   1.082       .  S
C827        H839   1.082       .  S
C828        C829   1.372       .  A
C828        H840   1.082       .  S
C829        H841   1.082       .  S
C830        C831   1.377       .  A
C830        H842   1.082       .  S
C831        H843   1.082       .  S
C832        C833   1.375       .  A
C832        H844   1.082       .  S
C833        H845   1.082       .  S
C834       C3474   1.495       .  S
C835       C3426   1.497       .  S
C836       C3362   1.486       .  S
C837       C3618   1.484       .  S
N848        C853   1.354       .  A
N848        C852   1.355       .  A
N848        H880   1.036       .  S
N849        C856   1.352       .  A
N849        C857   1.351       .  A
N850        C855   1.352       .  A
N850        C854   1.351       .  A
N850        H881   1.037       .  S
N851        C858   1.353       .  A
N851        C859   1.353       .  A
C852        C860   1.387       .  A
C852        C868   1.418       .  A
C853        C869   1.418       .  A
C853        C861   1.387       .  A
C854        C862   1.387       .  A
C854        C871   1.411       .  A
C855        C870   1.412       .  A
C855        C863   1.387       .  A
C856        C868   1.414       .  A
C856        C864   1.386       .  A
C857        C871   1.415       .  A
C857        C865   1.387       .  A
C858        C866   1.386       .  A
C858        C869   1.416       .  A
C859        C867   1.386       .  A
C859        C870   1.417       .  A
C860        C861   1.373       .  A
C860        H872   1.082       .  S
C861        H873   1.082       .  S
C862        C863   1.372       .  A
C862        H874   1.082       .  S
C863        H875   1.082       .  S
C864        C865   1.376       .  A
C864        H876   1.082       .  S
C865        H877   1.082       .  S
C866        C867   1.378       .  A
C866        H878   1.082       .  S
C867        H879   1.082       .  S
C868       C3538   1.492       .  S
C869       C3461   1.492       .  S
C870       C5218   1.493       .  S
C871       C4530   1.485       .  S
N882        C887   1.355       .  A
N882        C886   1.354       .  A
N882        H914   1.038       .  S
N883        C890   1.352       .  A
N883        C891   1.352       .  A
N884        C889   1.353       .  A
N884        C888   1.353       .  A
N884        H915   1.038       .  S
N885        C892   1.353       .  A
N885        C893   1.352       .  A
C886        C894   1.388       .  A
C886        C902   1.420       .  A
C887        C903   1.417       .  A
C887        C895   1.386       .  A
C888        C896   1.387       .  A
C888        C905   1.414       .  A
C889        C904   1.414       .  A
C889        C897   1.387       .  A
C890        C902   1.416       .  A
C890        C898   1.386       .  A
C891        C905   1.416       .  A
C891        C899   1.386       .  A
C892        C900   1.385       .  A
C892        C903   1.415       .  A
C893        C901   1.387       .  A
C893        C904   1.417       .  A
C894        C895   1.375       .  A
C894        H906   1.082       .  S
C895        H907   1.082       .  S
C896        C897   1.375       .  A
C896        H908   1.082       .  S
C897        H909   1.082       .  S
C898        C899   1.376       .  A
C898        H910   1.082       .  S
C899        H911   1.083       .  S
C900        C901   1.375       .  A
C900        H912   1.082       .  S
C901        H913   1.083       .  S
C902       C3413   1.497       .  S
C903       C3493   1.496       .  S
C904       C5141   1.490       .  S
C905       C4674   1.489       .  S
N916        C921   1.354       .  A
N916        C920   1.355       .  A
N916        H948   1.039       .  S
N917        C924   1.352       .  A
N917        C925   1.351       .  A
N918        C923   1.351       .  A
N918        C922   1.350       .  A
N918        H949   1.037       .  S
N919        C926   1.352       .  A
N919        C927   1.354       .  A
C920        C928   1.387       .  A
C920        C936   1.417       .  A
C921        C937   1.417       .  A
C921        C929   1.387       .  A
C922        C930   1.388       .  A
C922        C939   1.411       .  A
C923        C938   1.409       .  A
C923        C931   1.386       .  A
C924        C936   1.416       .  A
C924        C932   1.386       .  A
C925        C939   1.414       .  A
C925        C933   1.386       .  A
C926        C934   1.387       .  A
C926        C937   1.418       .  A
C927        C935   1.385       .  A
C927        C938   1.416       .  A
C928        C929   1.376       .  A
C928        H940   1.082       .  S
C929        H941   1.082       .  S
C930        C931   1.372       .  A
C930        H942   1.082       .  S
C931        H943   1.082       .  S
C932        C933   1.377       .  A
C932        H944   1.082       .  S
C933        H945   1.083       .  S
C934        C935   1.376       .  A
C934        H946   1.082       .  S
C935        H947   1.082       .  S
C936       C3525   1.498       .  S
C937       C3509   1.497       .  S
C938       C4002   1.489       .  S
C939       C4245   1.481       .  S
N950        C955   1.356       .  A
N950        C954   1.355       .  A
N950        H982   1.037       .  S
N951        C958   1.350       .  A
N951        C959   1.353       .  A
N952        C957   1.349       .  A
N952        C956   1.352       .  A
N952        H983   1.037       .  S
N953        C960   1.353       .  A
N953        C961   1.352       .  A
C954        C962   1.388       .  A
C954        C970   1.420       .  A
C955        C971   1.419       .  A
C955        C963   1.386       .  A
C956        C964   1.387       .  A
C956        C973   1.409       .  A
C957        C972   1.408       .  A
C957        C965   1.388       .  A
C958        C970   1.417       .  A
C958        C966   1.388       .  A
C959        C973   1.414       .  A
C959        C967   1.385       .  A
C960        C968   1.387       .  A
C960        C971   1.418       .  A
C961        C969   1.386       .  A
C961        C972   1.414       .  A
C962        C963   1.376       .  A
C962        H974   1.082       .  S
C963        H975   1.082       .  S
C964        C965   1.368       .  A
C964        H976   1.082       .  S
C965        H977   1.082       .  S
C966        C967   1.377       .  A
C966        H978   1.082       .  S
C967        H979   1.082       .  S
C968        C969   1.377       .  A
C968        H980   1.082       .  S
C969        H981   1.082       .  S
C970       C3397   1.493       .  S
C971       C3557   1.501       .  S
C972       C3349   1.480       .  S
C973       C4309   1.488       .  S
C984       C3330   1.494       .  S
C984        N985   1.356       .  A
C984        N989   1.358       .  A
N985        C986   1.358       .  A
C986       C3317   1.487       .  S
C986        N987   1.363       .  A
N987        C988   1.363       .  A
C988       C3298   1.499       .  S
C988        N989   1.359       .  A
N990        C995   1.351       .  A
N990        C994   1.357       .  A
N990       H1022   1.037       .  S
N991        C998   1.347       .  A
N991        C999   1.346       .  A
N992        C997   1.349       .  A
N992        C996   1.347       .  A
N992       H1023   1.044       .  S
N993       C1000   1.352       .  A
N993       C1001   1.353       .  A
C994       C1002   1.388       .  A
C994       C1010   1.420       .  A
C995       C1011   1.414       .  A
C995       C1003   1.386       .  A
C996       C1004   1.384       .  A
C996       C1013   1.398       .  A
C997       C1012   1.401       .  A
C997       C1005   1.384       .  A
C998       C1010   1.413       .  A
C998       C1006   1.387       .  A
C999       C1013   1.408       .  A
C999       C1007   1.386       .  A
C1000      C1008   1.386       .  A
C1000      C1011   1.415       .  A
C1001      C1009   1.387       .  A
C1001      C1012   1.419       .  A
C1002      C1003   1.373       .  A
C1002      H1014   1.082       .  S
C1003      H1015   1.082       .  S
C1004      C1005   1.374       .  A
C1004      H1016   1.082       .  S
C1005      H1017   1.082       .  S
C1006      C1007   1.379       .  A
C1006      H1018   1.082       .  S
C1007      H1019   1.082       .  S
C1008      C1009   1.372       .  A
C1008      H1020   1.082       .  S
C1009      H1021   1.082       .  S
C1010      C3301   1.492       .  S
C1011      C3282   1.492       .  S
C1012      C5237   1.526       .  S
C1013      C4149   1.474       .  S
C1024      C3234   1.504       .  S
C1024      N1025   1.361       .  A
C1024      N1029   1.363       .  A
N1025      C1026   1.363       .  A
C1026      C3269   1.503   1_554  S
C1026      N1027   1.358       .  A
N1027      C1028   1.360       .  A
C1028      C3253   1.505       .  S
C1028      N1029   1.360       .  A
C1030      C3186   1.488       .  S
C1030      N1031   1.360       .  A
C1030      N1035   1.356       .  A
N1031      C1032   1.361       .  A
C1032      C3218   1.493   1_554  S
C1032      N1033   1.359       .  A
N1033      C1034   1.357       .  A
C1034      C3205   1.484       .  S
C1034      N1035   1.354       .  A
C1036      C3173   1.487       .  S
C1036      N1037   1.358       .  A
C1036      N1041   1.358       .  A
N1037      C1038   1.359       .  A
C1038      C3285   1.487       .  S
C1038      N1039   1.361       .  A
N1039      C1040   1.360       .  A
C1040      C3154   1.487       .  S
C1040      N1041   1.357       .  A
N1042      C1047   1.353       .  A
N1042      C1046   1.352       .  A
N1042      H1074   1.038       .  S
N1043      C1050   1.350       .  A
N1043      C1051   1.352       .  A
N1044      C1049   1.349       .  A
N1044      C1048   1.349       .  A
N1044      H1075   1.038       .  S
N1045      C1052   1.349       .  A
N1045      C1053   1.350       .  A
C1046      C1054   1.387       .  A
C1046      C1062   1.415       .  A
C1047      C1063   1.416       .  A
C1047      C1055   1.388       .  A
C1048      C1056   1.386       .  A
C1048      C1065   1.406       .  A
C1049      C1064   1.408       .  A
C1049      C1057   1.388       .  A
C1050      C1062   1.414       .  A
C1050      C1058   1.387       .  A
C1051      C1065   1.410       .  A
C1051      C1059   1.384       .  A
C1052      C1060   1.387       .  A
C1052      C1063   1.412       .  A
C1053      C1061   1.385       .  A
C1053      C1064   1.410       .  A
C1054      C1055   1.376       .  A
C1054      H1066   1.082       .  S
C1055      H1067   1.082       .  S
C1056      C1057   1.371       .  A
C1056      H1068   1.082       .  S
C1057      H1069   1.082       .  S
C1058      C1059   1.375       .  A
C1058      H1070   1.082       .  S
C1059      H1071   1.082       .  S
C1060      C1061   1.376       .  A
C1060      H1072   1.082       .  S
C1061      H1073   1.082       .  S
C1062      C3157   1.490       .  S
C1063      C3189   1.488       .  S
C1064      C4389   1.479       .  S
C1065      C4613   1.484       .  S
N1076      C1081   1.353       .  A
N1076      C1080   1.355       .  A
N1076      H1108   1.037       .  S
N1077      C1084   1.353       .  A
N1077      C1085   1.352       .  A
N1078      C1083   1.350       .  A
N1078      C1082   1.348       .  A
N1078      H1109   1.036       .  S
N1079      C1086   1.350       .  A
N1079      C1087   1.352       .  A
C1080      C1088   1.386       .  A
C1080      C1096   1.417       .  A
C1081      C1097   1.418       .  A
C1081      C1089   1.388       .  A
C1082      C1090   1.387       .  A
C1082      C1099   1.407       .  A
C1083      C1098   1.409       .  A
C1083      C1091   1.387       .  A
C1084      C1096   1.415       .  A
C1084      C1092   1.386       .  A
C1085      C1099   1.415       .  A
C1085      C1093   1.386       .  A
C1086      C1094   1.387       .  A
C1086      C1097   1.414       .  A
C1087      C1095   1.385       .  A
C1087      C1098   1.413       .  A
C1088      C1089   1.375       .  A
C1088      H1100   1.082       .  S
C1089      H1101   1.082       .  S
C1090      C1091   1.373       .  A
C1090      H1102   1.082       .  S
C1091      H1103   1.082       .  S
C1092      C1093   1.376       .  A
C1092      H1104   1.082       .  S
C1093      H1105   1.082       .  S
C1094      C1095   1.376       .  A
C1094      H1106   1.082       .  S
C1095      H1107   1.082       .  S
C1096      C3237   1.495       .  S
C1097      C3170   1.489       .  S
C1098      C5122   1.485       .  S
C1099      C3602   1.481       .  S
N1110      C1115   1.352       .  A
N1110      C1114   1.353       .  A
N1110      H1142   1.035       .  S
N1111      C1118   1.350       .  A
N1111      C1119   1.350       .  A
N1112      C1117   1.350       .  A
N1112      C1116   1.350       .  A
N1112      H1143   1.034       .  S
N1113      C1120   1.351       .  A
N1113      C1121   1.350       .  A
C1114      C1122   1.388       .  A
C1114      C1130   1.416       .  A
C1115      C1131   1.414       .  A
C1115      C1123   1.386       .  A
C1116      C1124   1.388       .  A
C1116      C1133   1.410       .  A
C1117      C1132   1.408       .  A
C1117      C1125   1.387       .  A
C1118      C1130   1.412       .  A
C1118      C1126   1.386       .  A
C1119      C1133   1.411       .  A
C1119      C1127   1.386       .  A
C1120      C1128   1.386       .  A
C1120      C1131   1.413       .  A
C1121      C1129   1.386       .  A
C1121      C1132   1.412       .  A
C1122      C1123   1.375       .  A
C1122      H1134   1.082       .  S
C1123      H1135   1.083       .  S
C1124      C1125   1.369       .  A
C1124      H1136   1.082       .  S
C1125      H1137   1.082       .  S
C1126      C1127   1.376       .  A
C1126      H1138   1.082       .  S
C1127      H1139   1.082       .  S
C1128      C1129   1.376       .  A
C1128      H1140   1.082       .  S
C1129      H1141   1.082       .  S
C1130      C3266   1.486       .  S
C1131      C3221   1.488       .  S
C1132      C4469   1.479       .  S
C1133      C3138   1.479       .  S
N1144      C1149   1.354       .  A
N1144      C1148   1.354       .  A
N1144      H1176   1.038       .  S
N1145      C1152   1.349       .  A
N1145      C1153   1.350       .  A
N1146      C1151   1.347       .  A
N1146      C1150   1.350       .  A
N1146      H1177   1.039       .  S
N1147      C1154   1.351       .  A
N1147      C1155   1.351       .  A
C1148      C1156   1.387       .  A
C1148      C1164   1.418       .  A
C1149      C1165   1.416       .  A
C1149      C1157   1.387       .  A
C1150      C1158   1.387       .  A
C1150      C1167   1.405       .  A
C1151      C1166   1.405       .  A
C1151      C1159   1.387       .  A
C1152      C1164   1.413       .  A
C1152      C1160   1.387       .  A
C1153      C1167   1.409       .  A
C1153      C1161   1.385       .  A
C1154      C1162   1.387       .  A
C1154      C1165   1.414       .  A
C1155      C1163   1.386       .  A
C1155      C1166   1.413       .  A
C1156      C1157   1.377       .  A
C1156      H1168   1.082       .  S
C1157      H1169   1.082       .  S
C1158      C1159   1.370       .  A
C1158      H1170   1.082       .  S
C1159      H1171   1.082       .  S
C1160      C1161   1.375       .  A
C1160      H1172   1.082       .  S
C1161      H1173   1.082       .  S
C1162      C1163   1.378       .  A
C1162      H1174   1.082       .  S
C1163      H1175   1.082       .  S
C1164      C3314   1.491       .  S
C1165      C3250   1.491       .  S
C1166      C4293   1.482       .  S
C1167      C4050   1.480       .  S
N1178      C1183   1.353       .  A
N1178      C1182   1.351       .  A
N1178      H1210   1.036       .  S
N1179      C1186   1.348       .  A
N1179      C1187   1.351       .  A
N1180      C1185   1.349       .  A
N1180      C1184   1.354       .  A
N1180      H1211   1.036       .  S
N1181      C1188   1.352       .  A
N1181      C1189   1.351       .  A
C1182      C1190   1.388       .  A
C1182      C1198   1.415       .  A
C1183      C1199   1.414       .  A
C1183      C1191   1.386       .  A
C1184      C1192   1.385       .  A
C1184      C1201   1.411       .  A
C1185      C1200   1.413       .  A
C1185      C1193   1.390       .  A
C1186      C1198   1.412       .  A
C1186      C1194   1.387       .  A
C1187      C1201   1.410       .  A
C1187      C1195   1.384       .  A
C1188      C1196   1.386       .  A
C1188      C1199   1.415       .  A
C1189      C1197   1.386       .  A
C1189      C1200   1.413       .  A
C1190      C1191   1.375       .  A
C1190      H1202   1.082       .  S
C1191      H1203   1.083       .  S
C1192      C1193   1.368       .  A
C1192      H1204   1.082       .  S
C1193      H1205   1.081       .  S
C1194      C1195   1.375       .  A
C1194      H1206   1.082       .  S
C1195      H1207   1.082       .  S
C1196      C1197   1.376       .  A
C1196      H1208   1.082       .  S
C1197      H1209   1.082       .  S
C1198      C3202   1.481       .  S
C1199      C3333   1.492       .  S
C1200      C3682   1.479       .  S
C1201      C3973   1.488       .  S
O1212      C1228   1.274       .  A
O1212     Zn1218   1.997       .  S
C1213      O1229   1.273       .  A
C1213      O1226   1.270       .  A
C1213      C3122   1.484       .  S
O1214      C1227   1.278       .  A
O1214     Cd1221   2.104       .  S
O1215      C1233   1.266       .  A
O1215     Cd1224   2.013       .  S
O1216      C1230   1.274       .  A
O1216     Cd1220   2.055       .  S
O1217      C1228   1.272       .  A
O1217     Cd1220   2.050       .  S
Zn1218     O1229   2.017       .  S
Zn1218     O1231   1.951       .  S
Zn1218     O1223   1.914       .  S
O1219      C1230   1.270       .  A
O1219     Cd1224   2.046       .  S
Cd1220     O1222   2.019       .  S
Cd1220     O1223   1.969       .  S
Cd1221     O1225   2.105       .  S
Cd1221     O1234   2.105       .  S
Cd1221     O1223   2.031       .  S
O1222      C1232   1.267       .  A
O1223     Cd1224   1.969       .  S
Cd1224     O1226   2.049       .  S
O1225      C1232   1.278       .  A
C1227      O1231   1.265       .  A
C1227      C3090   1.465       .  S
C1228      C3106   1.483       .  S
C1230      C3141   1.488       .  S
C1232      C3365   1.471       .  S
C1233      O1234   1.279       .  A
C1233      C4757   1.463       .  S
O1235      C1251   1.269       .  A
O1235     Zn1241   1.992   1_545  S
C1236      O1252   1.271       .  A
C1236      O1249   1.275       .  A
C1236      C3061   1.490       .  S
O1237      C1250   1.281   1_655  A
O1237     Cd1244   2.129       .  S
O1238      C1256   1.267       .  A
O1238     Cd1247   2.017   1_565  S
O1239      C1253   1.273       .  A
O1239     Cd1243   2.057       .  S
O1240      C1251   1.272       .  A
O1240     Cd1243   2.054   1_455  S
Zn1241     O1252   1.980       .  S
Zn1241     O1254   1.950       .  S
Zn1241     O1246   1.906   1_565  S
O1242      C1253   1.275       .  A
O1242     Cd1247   2.071       .  S
Cd1243     O1245   2.000       .  S
Cd1243     O1246   1.971   1_655  S
Cd1244     O1248   2.122   1_565  S
Cd1244     O1257   2.127       .  S
Cd1244     O1246   2.040   1_665  S
O1245      C1255   1.265       .  A
O1246     Cd1247   1.977   1_455  S
Cd1247     O1249   2.076   1_645  S
O1248      C1255   1.281       .  A
C1250      O1254   1.265       .  A
C1250      C3717   1.475       .  S
C1251      C3029   1.488       .  S
C1253      C3042   1.488       .  S
C1255      C3077   1.470       .  S
C1256      O1257   1.283       .  A
C1256      C4786   1.473       .  S
C1258      C2994   1.492       .  S
C1258      N1259   1.361       .  A
C1258      N1263   1.361       .  A
N1259      C1260   1.362       .  A
C1260      C2978   1.500       .  S
C1260      N1261   1.358       .  A
N1261      C1262   1.358       .  A
C1262      C3010   1.495       .  S
C1262      N1263   1.361       .  A
C1264      C2965   1.490       .  S
C1264      N1265   1.359       .  A
C1264      N1269   1.359       .  A
N1265      C1266   1.357       .  A
C1266      C2946   1.490       .  S
C1266      N1267   1.357       .  A
N1267      C1268   1.356       .  A
C1268      C2930   1.493       .  S
C1268      N1269   1.361       .  A
C1270      C2914   1.485       .  S
C1270      N1271   1.356       .  A
C1270      N1275   1.361       .  A
N1271      C1272   1.355       .  A
C1272      C2882   1.493       .  S
C1272      N1273   1.360       .  A
N1273      C1274   1.361       .  A
C1274      C2901   1.499       .  S
C1274      N1275   1.361       .  A
N1276      C1281   1.354       .  A
N1276      C1280   1.352       .  A
N1276      H1308   1.036       .  S
N1277      C1284   1.351       .  A
N1277      C1285   1.353       .  A
N1278      C1283   1.349       .  A
N1278      C1282   1.349       .  A
N1278      H1309   1.035       .  S
N1279      C1286   1.349       .  A
N1279      C1287   1.349       .  A
C1280      C1288   1.389       .  A
C1280      C1296   1.417       .  A
C1281      C1297   1.415       .  A
C1281      C1289   1.386       .  A
C1282      C1290   1.388       .  A
C1282      C1299   1.411       .  A
C1283      C1298   1.408       .  A
C1283      C1291   1.387       .  A
C1284      C1296   1.416       .  A
C1284      C1292   1.387       .  A
C1285      C1299   1.416       .  A
C1285      C1293   1.385       .  A
C1286      C1294   1.387       .  A
C1286      C1297   1.411       .  A
C1287      C1295   1.386       .  A
C1287      C1298   1.409       .  A
C1288      C1289   1.373       .  A
C1288      H1300   1.082       .  S
C1289      H1301   1.082       .  S
C1290      C1291   1.369       .  A
C1290      H1302   1.082       .  S
C1291      H1303   1.082       .  S
C1292      C1293   1.378       .  A
C1292      H1304   1.082       .  S
C1293      H1305   1.082       .  S
C1294      C1295   1.374       .  A
C1294      H1306   1.082       .  S
C1295      H1307   1.082       .  S
C1296      C2898   1.488       .  S
C1297      C2933   1.486       .  S
C1298      C3669   1.476       .  S
C1299      C5109   1.485       .  S
N1310      C1315   1.353       .  A
N1310      C1314   1.355       .  A
N1310      H1342   1.035       .  S
N1311      C1318   1.351       .  A
N1311      C1319   1.350       .  A
N1312      C1317   1.350       .  A
N1312      C1316   1.348       .  A
N1312      H1343   1.037       .  S
N1313      C1320   1.348       .  A
N1313      C1321   1.351       .  A
C1314      C1322   1.387       .  A
C1314      C1330   1.419       .  A
C1315      C1331   1.418       .  A
C1315      C1323   1.387       .  A
C1316      C1324   1.387       .  A
C1316      C1333   1.406       .  A
C1317      C1332   1.408       .  A
C1317      C1325   1.387       .  A
C1318      C1330   1.413       .  A
C1318      C1326   1.387       .  A
C1319      C1333   1.412       .  A
C1319      C1327   1.386       .  A
C1320      C1328   1.387       .  A
C1320      C1331   1.412       .  A
C1321      C1329   1.385       .  A
C1321      C1332   1.410       .  A
C1322      C1323   1.375       .  A
C1322      H1334   1.082       .  S
C1323      H1335   1.082       .  S
C1324      C1325   1.370       .  A
C1324      H1336   1.082       .  S
C1325      H1337   1.082       .  S
C1326      C1327   1.374       .  A
C1326      H1338   1.082       .  S
C1327      H1339   1.082       .  S
C1328      C1329   1.375       .  A
C1328      H1340   1.082       .  S
C1329      H1341   1.082       .  S
C1330      C2981   1.490       .  S
C1331      C2885   1.484       .  S
C1332      C4514   1.482       .  S
C1333      C4213   1.477       .  S
C1344      C2850   1.500       .  S
C1344      N1345   1.359       .  A
C1344      N1349   1.360       .  A
N1345      C1346   1.361       .  A
C1346      C2866   1.496       .  S
C1346      N1347   1.364       .  A
N1347      C1348   1.364       .  A
C1348      C2837   1.500       .  S
C1348      N1349   1.361       .  A
N1350      C1355   1.353       .  A
N1350      C1354   1.354       .  A
N1350      H1382   1.040       .  S
N1351      C1358   1.348       .  A
N1351      C1359   1.350       .  A
N1352      C1357   1.347       .  A
N1352      C1356   1.349       .  A
N1352      H1383   1.039       .  S
N1353      C1360   1.351       .  A
N1353      C1361   1.351       .  A
C1354      C1362   1.387       .  A
C1354      C1370   1.417       .  A
C1355      C1371   1.415       .  A
C1355      C1363   1.387       .  A
C1356      C1364   1.387       .  A
C1356      C1373   1.405       .  A
C1357      C1372   1.404       .  A
C1357      C1365   1.387       .  A
C1358      C1370   1.413       .  A
C1358      C1366   1.387       .  A
C1359      C1373   1.409       .  A
C1359      C1367   1.385       .  A
C1360      C1368   1.386       .  A
C1360      C1371   1.413       .  A
C1361      C1369   1.386       .  A
C1361      C1372   1.412       .  A
C1362      C1363   1.377       .  A
C1362      H1374   1.082       .  S
C1363      H1375   1.082       .  S
C1364      C1365   1.373       .  A
C1364      H1376   1.082       .  S
C1365      H1377   1.082       .  S
C1366      C1367   1.376       .  A
C1366      H1378   1.082       .  S
C1367      H1379   1.082       .  S
C1368      C1369   1.377       .  A
C1368      H1380   1.082       .  S
C1369      H1381   1.082       .  S
C1370      C2917   1.493       .  S
C1371      C2834   1.494       .  S
C1372      C3109   1.478       .  S
C1373      C5250   1.480       .  S
N1384      C1389   1.353       .  A
N1384      C1388   1.354       .  A
N1384      H1416   1.038       .  S
N1385      C1392   1.351       .  A
N1385      C1393   1.351       .  A
N1386      C1391   1.349       .  A
N1386      C1390   1.349       .  A
N1386      H1417   1.038       .  S
N1387      C1394   1.348       .  A
N1387      C1395   1.349       .  A
C1388      C1396   1.387       .  A
C1388      C1404   1.417       .  A
C1389      C1405   1.414       .  A
C1389      C1397   1.386       .  A
C1390      C1398   1.387       .  A
C1390      C1407   1.407       .  A
C1391      C1406   1.406       .  A
C1391      C1399   1.387       .  A
C1392      C1404   1.415       .  A
C1392      C1400   1.386       .  A
C1393      C1407   1.413       .  A
C1393      C1401   1.385       .  A
C1394      C1402   1.387       .  A
C1394      C1405   1.410       .  A
C1395      C1403   1.386       .  A
C1395      C1406   1.408       .  A
C1396      C1397   1.376       .  A
C1396      H1408   1.082       .  S
C1397      H1409   1.082       .  S
C1398      C1399   1.373       .  A
C1398      H1410   1.082       .  S
C1399      H1411   1.082       .  S
C1400      C1401   1.377       .  A
C1400      H1412   1.082       .  S
C1401      H1413   1.082       .  S
C1402      C1403   1.375       .  A
C1402      H1414   1.082       .  S
C1403      H1415   1.083       .  S
C1404      C3013   1.495       .  S
C1405      C2949   1.484       .  S
C1406      C4133   1.476       .  S
C1407      C4485   1.483       .  S
N1418      C1423   1.353       .  A
N1418      C1422   1.355       .  A
N1418      H1450   1.037       .  S
N1419      C1426   1.353       .  A
N1419      C1427   1.351       .  A
N1420      C1425   1.350       .  A
N1420      C1424   1.349       .  A
N1420      H1451   1.038       .  S
N1421      C1428   1.350       .  A
N1421      C1429   1.352       .  A
C1422      C1430   1.386       .  A
C1422      C1438   1.417       .  A
C1423      C1439   1.417       .  A
C1423      C1431   1.388       .  A
C1424      C1432   1.387       .  A
C1424      C1441   1.407       .  A
C1425      C1440   1.407       .  A
C1425      C1433   1.387       .  A
C1426      C1438   1.416       .  A
C1426      C1434   1.386       .  A
C1427      C1441   1.414       .  A
C1427      C1435   1.386       .  A
C1428      C1436   1.387       .  A
C1428      C1439   1.415       .  A
C1429      C1437   1.385       .  A
C1429      C1440   1.412       .  A
C1430      C1431   1.376       .  A
C1430      H1442   1.082       .  S
C1431      H1443   1.082       .  S
C1432      C1433   1.371       .  A
C1432      H1444   1.082       .  S
C1433      H1445   1.082       .  S
C1434      C1435   1.376       .  A
C1434      H1446   1.082       .  S
C1435      H1447   1.082       .  S
C1436      C1437   1.377       .  A
C1436      H1448   1.082       .  S
C1437      H1449   1.082       .  S
C1438      C2869   1.499       .  S
C1439      C2962   1.488       .  S
C1440      C3045   1.486       .  S
C1441      C2821   1.480       .  S
N1452      C1457   1.356       .  A
N1452      C1456   1.355       .  A
N1452      H1484   1.039       .  S
N1453      C1460   1.352       .  A
N1453      C1461   1.352       .  A
N1454      C1459   1.350       .  A
N1454      C1458   1.349       .  A
N1454      H1485   1.038       .  S
N1455      C1462   1.351       .  A
N1455      C1463   1.352       .  A
C1456      C1464   1.387       .  A
C1456      C1472   1.419       .  A
C1457      C1473   1.420       .  A
C1457      C1465   1.387       .  A
C1458      C1466   1.387       .  A
C1458      C1475   1.407       .  A
C1459      C1474   1.408       .  A
C1459      C1467   1.387       .  A
C1460      C1472   1.416       .  A
C1460      C1468   1.387       .  A
C1461      C1475   1.414       .  A
C1461      C1469   1.386       .  A
C1462      C1470   1.387       .  A
C1462      C1473   1.415       .  A
C1463      C1471   1.385       .  A
C1463      C1474   1.413       .  A
C1464      C1465   1.377       .  A
C1464      H1476   1.082       .  S
C1465      H1477   1.082       .  S
C1466      C1467   1.372       .  A
C1466      H1478   1.082       .  S
C1467      H1479   1.082       .  S
C1468      C1469   1.377       .  A
C1468      H1480   1.082       .  S
C1469      H1481   1.083       .  S
C1470      C1471   1.377       .  A
C1470      H1482   1.082       .  S
C1471      H1483   1.082       .  S
C1472      C2853   1.498       .  S
C1473      C2997   1.497       .  S
C1474      C3957   1.486       .  S
C1475      C3586   1.483       .  S
C1486      C2786   1.491   1_455  S
C1486      N1487   1.358       .  A
C1486      N1491   1.363       .  A
N1487      C1488   1.357       .  A
C1488      C2802   1.485       .  S
C1488      N1489   1.357       .  A
N1489      C1490   1.357       .  A
C1490      C2770   1.498       .  S
C1490      N1491   1.363       .  A
N1492      C1497   1.354       .  A
N1492      C1496   1.359       .  A
N1492      H1524   1.037       .  S
N1493      C1500   1.350       .  A
N1493      C1501   1.348       .  A
N1494      C1499   1.348       .  A
N1494      C1498   1.347       .  A
N1494      H1525   1.045       .  S
N1495      C1502   1.351       .  A
N1495      C1503   1.358       .  A
C1496      C1504   1.386       .  A
C1496      C1512   1.421       .  A
C1497      C1513   1.422       .  A
C1497      C1505   1.389       .  A
C1498      C1506   1.384       .  A
C1498      C1515   1.397       .  A
C1499      C1514   1.403       .  A
C1499      C1507   1.385       .  A
C1500      C1512   1.414       .  A
C1500      C1508   1.387       .  A
C1501      C1515   1.409       .  A
C1501      C1509   1.385       .  A
C1502      C1510   1.385       .  A
C1502      C1513   1.419       .  A
C1503      C1511   1.389       .  A
C1503      C1514   1.429       .  A
C1504      C1505   1.373       .  A
C1504      H1516   1.082       .  S
C1505      H1517   1.082       .  S
C1506      C1507   1.378       .  A
C1506      H1518   1.082       .  S
C1507      H1519   1.082       .  S
C1508      C1509   1.381       .  A
C1508      H1520   1.082       .  S
C1509      H1521   1.082       .  S
C1510      C1511   1.374       .  A
C1510      H1522   1.082       .  S
C1511      H1523   1.080       .  S
C1512      C2754   1.497       .  S
C1513      C2773   1.491       .  S
C1514      C4085   1.536       .  S
C1515      C4658   1.481       .  S
C1526      C2706   1.494       .  S
C1526      N1527   1.364       .  A
C1526      N1531   1.360       .  A
N1527      C1528   1.363       .  A
C1528      C2722   1.495       .  S
C1528      N1529   1.357       .  A
N1529      C1530   1.357       .  A
C1530      C2738   1.488       .  S
C1530      N1531   1.358       .  A
C1532      C2693   1.495       .  S
C1532      N1533   1.359       .  A
C1532      N1537   1.362       .  A
N1533      C1534   1.359       .  A
C1534      C2677   1.497       .  S
C1534      N1535   1.362       .  A
N1535      C1536   1.364       .  A
C1536      C2757   1.510       .  S
C1536      N1537   1.363       .  A
N1538      C1543   1.355       .  A
N1538      C1542   1.355       .  A
N1538      H1570   1.037       .  S
N1539      C1546   1.353       .  A
N1539      C1547   1.353       .  A
N1540      C1545   1.350       .  A
N1540      C1544   1.350       .  A
N1540      H1571   1.036       .  S
N1541      C1548   1.352       .  A
N1541      C1549   1.352       .  A
C1542      C1550   1.387       .  A
C1542      C1558   1.419       .  A
C1543      C1559   1.419       .  A
C1543      C1551   1.387       .  A
C1544      C1552   1.388       .  A
C1544      C1561   1.410       .  A
C1545      C1560   1.410       .  A
C1545      C1553   1.387       .  A
C1546      C1558   1.417       .  A
C1546      C1554   1.386       .  A
C1547      C1561   1.416       .  A
C1547      C1555   1.386       .  A
C1548      C1556   1.386       .  A
C1548      C1559   1.416       .  A
C1549      C1557   1.386       .  A
C1549      C1560   1.416       .  A
C1550      C1551   1.376       .  A
C1550      H1562   1.082       .  S
C1551      H1563   1.082       .  S
C1552      C1553   1.372       .  A
C1552      H1564   1.082       .  S
C1553      H1565   1.082       .  S
C1554      C1555   1.375       .  A
C1554      H1566   1.082       .  S
C1555      H1567   1.082       .  S
C1556      C1557   1.376       .  A
C1556      H1568   1.082       .  S
C1557      H1569   1.082       .  S
C1558      C2674   1.497       .  S
C1559      C2709   1.496       .  S
C1560      C4421   1.484       .  S
C1561      C5186   1.483       .  S
C1572      C2658   1.484       .  S
C1572      N1573   1.356       .  A
C1572      N1577   1.358       .  A
N1573      C1574   1.357       .  A
C1574      C2626   1.483   1_455  S
C1574      N1575   1.360       .  A
N1575      C1576   1.361       .  A
C1576      C2645   1.502       .  S
C1576      N1577   1.357       .  A
N1578      C1583   1.355       .  A
N1578      C1582   1.355       .  A
N1578      H1610   1.036       .  S
N1579      C1586   1.353       .  A
N1579      C1587   1.353       .  A
N1580      C1585   1.352       .  A
N1580      C1584   1.350       .  A
N1580      H1611   1.037       .  S
N1581      C1588   1.350       .  A
N1581      C1589   1.351       .  A
C1582      C1590   1.388       .  A
C1582      C1598   1.422       .  A
C1583      C1599   1.419       .  A
C1583      C1591   1.387       .  A
C1584      C1592   1.388       .  A
C1584      C1601   1.413       .  A
C1585      C1600   1.410       .  A
C1585      C1593   1.386       .  A
C1586      C1598   1.420       .  A
C1586      C1594   1.387       .  A
C1587      C1601   1.417       .  A
C1587      C1595   1.386       .  A
C1588      C1596   1.387       .  A
C1588      C1599   1.414       .  A
C1589      C1597   1.386       .  A
C1589      C1600   1.413       .  A
C1590      C1591   1.375       .  A
C1590      H1602   1.082       .  S
C1591      H1603   1.082       .  S
C1592      C1593   1.372       .  A
C1592      H1604   1.082       .  S
C1593      H1605   1.082       .  S
C1594      C1595   1.378       .  A
C1594      H1606   1.082       .  S
C1595      H1607   1.082       .  S
C1596      C1597   1.374       .  A
C1596      H1608   1.082       .  S
C1597      H1609   1.082       .  S
C1598      C2690   1.502       .  S
C1599      C2642   1.489       .  S
C1600      C2610   1.486       .  S
C1601      C4581   1.488       .  S
N1612      C1617   1.352       .  A
N1612      C1616   1.352       .  A
N1612      H1644   1.037       .  S
N1613      C1620   1.351       .  A
N1613      C1621   1.351       .  A
N1614      C1619   1.352       .  A
N1614      C1618   1.351       .  A
N1614      H1645   1.038       .  S
N1615      C1622   1.349       .  A
N1615      C1623   1.350       .  A
C1616      C1624   1.387       .  A
C1616      C1632   1.415       .  A
C1617      C1633   1.416       .  A
C1617      C1625   1.388       .  A
C1618      C1626   1.387       .  A
C1618      C1635   1.409       .  A
C1619      C1634   1.411       .  A
C1619      C1627   1.387       .  A
C1620      C1632   1.413       .  A
C1620      C1628   1.386       .  A
C1621      C1635   1.412       .  A
C1621      C1629   1.386       .  A
C1622      C1630   1.387       .  A
C1622      C1633   1.413       .  A
C1623      C1631   1.385       .  A
C1623      C1634   1.410       .  A
C1624      C1625   1.376       .  A
C1624      H1636   1.082       .  S
C1625      H1637   1.082       .  S
C1626      C1627   1.369       .  A
C1626      H1638   1.082       .  S
C1627      H1639   1.082       .  S
C1628      C1629   1.376       .  A
C1628      H1640   1.082       .  S
C1629      H1641   1.082       .  S
C1630      C1631   1.376       .  A
C1630      H1642   1.082       .  S
C1631      H1643   1.082       .  S
C1632      C2789   1.490       .  S
C1633      C2629   1.485       .  S
C1634      C3125   1.484       .  S
C1635      C4165   1.484       .  S
N1646      C1651   1.354       .  A
N1646      C1650   1.353       .  A
N1646      H1678   1.038       .  S
N1647      C1654   1.349       .  A
N1647      C1655   1.351       .  A
N1648      C1653   1.349       .  A
N1648      C1652   1.350       .  A
N1648      H1679   1.037       .  S
N1649      C1656   1.351       .  A
N1649      C1657   1.351       .  A
C1650      C1658   1.387       .  A
C1650      C1666   1.416       .  A
C1651      C1667   1.417       .  A
C1651      C1659   1.387       .  A
C1652      C1660   1.387       .  A
C1652      C1669   1.407       .  A
C1653      C1668   1.407       .  A
C1653      C1661   1.388       .  A
C1654      C1666   1.414       .  A
C1654      C1662   1.387       .  A
C1655      C1669   1.411       .  A
C1655      C1663   1.385       .  A
C1656      C1664   1.386       .  A
C1656      C1667   1.414       .  A
C1657      C1665   1.386       .  A
C1657      C1668   1.413       .  A
C1658      C1659   1.376       .  A
C1658      H1670   1.082       .  S
C1659      H1671   1.082       .  S
C1660      C1661   1.371       .  A
C1660      H1672   1.082       .  S
C1661      H1673   1.082       .  S
C1662      C1663   1.376       .  A
C1662      H1674   1.082       .  S
C1663      H1675   1.082       .  S
C1664      C1665   1.376       .  A
C1664      H1676   1.082       .  S
C1665      H1677   1.082       .  S
C1666      C2805   1.489       .  S
C1667      C2741   1.494       .  S
C1668      C4197   1.478       .  S
C1669      C3058   1.482       .  S
N1680      C1685   1.352       .  A
N1680      C1684   1.354       .  A
N1680      H1712   1.037       .  S
N1681      C1688   1.350       .  A
N1681      C1689   1.349       .  A
N1682      C1687   1.349       .  A
N1682      C1686   1.347       .  A
N1682      H1713   1.039       .  S
N1683      C1690   1.348       .  A
N1683      C1691   1.350       .  A
C1684      C1692   1.386       .  A
C1684      C1700   1.416       .  A
C1685      C1701   1.416       .  A
C1685      C1693   1.388       .  A
C1686      C1694   1.387       .  A
C1686      C1703   1.405       .  A
C1687      C1702   1.406       .  A
C1687      C1695   1.387       .  A
C1688      C1700   1.411       .  A
C1688      C1696   1.386       .  A
C1689      C1703   1.409       .  A
C1689      C1697   1.386       .  A
C1690      C1698   1.387       .  A
C1690      C1701   1.413       .  A
C1691      C1699   1.385       .  A
C1691      C1702   1.409       .  A
C1692      C1693   1.377       .  A
C1692      H1704   1.082       .  S
C1693      H1705   1.082       .  S
C1694      C1695   1.373       .  A
C1694      H1706   1.082       .  S
C1695      H1707   1.082       .  S
C1696      C1697   1.375       .  A
C1696      H1708   1.082       .  S
C1697      H1709   1.082       .  S
C1698      C1699   1.376       .  A
C1698      H1710   1.082       .  S
C1699      H1711   1.082       .  S
C1700      C2725   1.490       .  S
C1701      C2661   1.485       .  S
C1702      C4277   1.480       .  S
C1703      C4357   1.477       .  S
C1714      C2562   1.509       .  S
C1714      N1715   1.357       .  A
C1714      N1719   1.366       .  A
N1715      C1716   1.357       .  A
C1716      C2597   1.495       .  S
C1716      N1717   1.361       .  A
N1717      C1718   1.364       .  A
C1718      C2578   1.505       .  S
C1718      N1719   1.367       .  A
N1720      C1725   1.353       .  A
N1720      C1724   1.356       .  A
N1720      H1752   1.035       .  S
N1721      C1728   1.354       .  A
N1721      C1729   1.352       .  A
N1722      C1727   1.353       .  A
N1722      C1726   1.351       .  A
N1722      H1753   1.036       .  S
N1723      C1730   1.351       .  A
N1723      C1731   1.353       .  A
C1724      C1732   1.386       .  A
C1724      C1740   1.419       .  A
C1725      C1741   1.419       .  A
C1725      C1733   1.388       .  A
C1726      C1734   1.388       .  A
C1726      C1743   1.411       .  A
C1727      C1742   1.412       .  A
C1727      C1735   1.387       .  A
C1728      C1740   1.418       .  A
C1728      C1736   1.386       .  A
C1729      C1743   1.416       .  A
C1729      C1737   1.386       .  A
C1730      C1738   1.387       .  A
C1730      C1741   1.416       .  A
C1731      C1739   1.385       .  A
C1731      C1742   1.415       .  A
C1732      C1733   1.376       .  A
C1732      H1744   1.082       .  S
C1733      H1745   1.082       .  S
C1734      C1735   1.371       .  A
C1734      H1746   1.082       .  S
C1735      H1747   1.082       .  S
C1736      C1737   1.376       .  A
C1736      H1748   1.082       .  S
C1737      H1749   1.082       .  S
C1738      C1739   1.377       .  A
C1738      H1750   1.082       .  S
C1739      H1751   1.083       .  S
C1740      C2581   1.502       .  S
C1741      C2546   1.488       .  S
C1742      C5173   1.489       .  S
C1743      C5093   1.486       .  S
C1754      C2549   1.497       .  S
C1754      N1755   1.355       .  A
C1754      N1759   1.360       .  A
N1755      C1756   1.356       .  A
C1756      C2530   1.486       .  S
C1756      N1757   1.359       .  A
N1757      C1758   1.361       .  A
C1758      C2514   1.493       .  S
C1758      N1759   1.362       .  A
C1760      C2482   1.502       .  S
C1760      N1761   1.361       .  A
C1760      N1765   1.366       .  A
N1761      C1762   1.360       .  A
C1762      C2498   1.494   1_655  S
C1762      N1763   1.356       .  A
N1763      C1764   1.358       .  A
C1764      C2466   1.494       .  S
C1764      N1765   1.364       .  A
C1766      C2450   1.505   1_655  S
C1766      N1767   1.362       .  A
C1766      N1771   1.362       .  A
N1767      C1768   1.361       .  A
C1768      C2434   1.498       .  S
C1768      N1769   1.361       .  A
N1769      C1770   1.362       .  A
C1770      C2418   1.500       .  S
C1770      N1771   1.362       .  A
N1772      C1777   1.355       .  A
N1772      C1776   1.354       .  A
N1772      H1804   1.034       .  S
N1773      C1780   1.354       .  A
N1773      C1781   1.354       .  A
N1774      C1779   1.353       .  A
N1774      C1778   1.351       .  A
N1774      H1805   1.035       .  S
N1775      C1782   1.352       .  A
N1775      C1783   1.352       .  A
C1776      C1784   1.388       .  A
C1776      C1792   1.420       .  A
C1777      C1793   1.421       .  A
C1777      C1785   1.387       .  A
C1778      C1786   1.387       .  A
C1778      C1795   1.412       .  A
C1779      C1794   1.413       .  A
C1779      C1787   1.387       .  A
C1780      C1792   1.420       .  A
C1780      C1788   1.386       .  A
C1781      C1795   1.419       .  A
C1781      C1789   1.386       .  A
C1782      C1790   1.387       .  A
C1782      C1793   1.417       .  A
C1783      C1791   1.385       .  A
C1783      C1794   1.416       .  A
C1784      C1785   1.378       .  A
C1784      H1796   1.083       .  S
C1785      H1797   1.082       .  S
C1786      C1787   1.373       .  A
C1786      H1798   1.082       .  S
C1787      H1799   1.082       .  S
C1788      C1789   1.376       .  A
C1788      H1800   1.082       .  S
C1789      H1801   1.082       .  S
C1790      C1791   1.375       .  A
C1790      H1802   1.082       .  S
C1791      H1803   1.082       .  S
C1792      C2453   1.496       .  S
C1793      C2501   1.495       .  S
C1794      C4645   1.489       .  S
C1795      C4546   1.489       .  S
N1806      C1811   1.356       .  A
N1806      C1810   1.357       .  A
N1806      H1838   1.032       .  S
N1807      C1814   1.352       .  A
N1807      C1815   1.353       .  A
N1808      C1813   1.350       .  A
N1808      C1812   1.349       .  A
N1808      H1839   1.034       .  S
N1809      C1816   1.351       .  A
N1809      C1817   1.353       .  A
C1810      C1818   1.386       .  A
C1810      C1826   1.423       .  A
C1811      C1827   1.426       .  A
C1811      C1819   1.389       .  A
C1812      C1820   1.388       .  A
C1812      C1829   1.409       .  A
C1813      C1828   1.407       .  A
C1813      C1821   1.386       .  A
C1814      C1826   1.419       .  A
C1814      C1822   1.387       .  A
C1815      C1829   1.416       .  A
C1815      C1823   1.385       .  A
C1816      C1824   1.389       .  A
C1816      C1827   1.419       .  A
C1817      C1825   1.384       .  A
C1817      C1828   1.415       .  A
C1818      C1819   1.374       .  A
C1818      H1830   1.082       .  S
C1819      H1831   1.081       .  S
C1820      C1821   1.371       .  A
C1820      H1832   1.082       .  S
C1821      H1833   1.082       .  S
C1822      C1823   1.375       .  A
C1822      H1834   1.082       .  S
C1823      H1835   1.082       .  S
C1824      C1825   1.375       .  A
C1824      H1836   1.082       .  S
C1825      H1837   1.082       .  S
C1826      C2421   1.499       .  S
C1827      C2517   1.492       .  S
C1828      C3093   1.484       .  S
C1829      C2402   1.483       .  S
N1840      C1845   1.357       .  A
N1840      C1844   1.354       .  A
N1840      H1872   1.037       .  S
N1841      C1848   1.352       .  A
N1841      C1849   1.353       .  A
N1842      C1847   1.350       .  A
N1842      C1846   1.353       .  A
N1842      H1873   1.037       .  S
N1843      C1850   1.352       .  A
N1843      C1851   1.351       .  A
C1844      C1852   1.387       .  A
C1844      C1860   1.419       .  A
C1845      C1861   1.420       .  A
C1845      C1853   1.387       .  A
C1846      C1854   1.386       .  A
C1846      C1863   1.410       .  A
C1847      C1862   1.411       .  A
C1847      C1855   1.389       .  A
C1848      C1860   1.417       .  A
C1848      C1856   1.387       .  A
C1849      C1863   1.415       .  A
C1849      C1857   1.385       .  A
C1850      C1858   1.387       .  A
C1850      C1861   1.416       .  A
C1851      C1859   1.386       .  A
C1851      C1862   1.412       .  A
C1852      C1853   1.375       .  A
C1852      H1864   1.082       .  S
C1853      H1865   1.082       .  S
C1854      C1855   1.368       .  A
C1854      H1866   1.082       .  S
C1855      H1867   1.082       .  S
C1856      C1857   1.378       .  A
C1856      H1868   1.082       .  S
C1857      H1869   1.082       .  S
C1858      C1859   1.377       .  A
C1858      H1870   1.082       .  S
C1859      H1871   1.083       .  S
C1860      C2485   1.495       .  S
C1861      C2594   1.498       .  S
C1862      C3634   1.481       .  S
C1863      C4325   1.490       .  S
N1874      C1879   1.351       .  A
N1874      C1878   1.355       .  A
N1874      H1906   1.038       .  S
N1875      C1882   1.353       .  A
N1875      C1883   1.349       .  A
N1876      C1881   1.354       .  A
N1876      C1880   1.349       .  A
N1876      H1907   1.038       .  S
N1877      C1884   1.350       .  A
N1877      C1885   1.353       .  A
C1878      C1886   1.387       .  A
C1878      C1894   1.417       .  A
C1879      C1895   1.415       .  A
C1879      C1887   1.387       .  A
C1880      C1888   1.390       .  A
C1880      C1897   1.412       .  A
C1881      C1896   1.410       .  A
C1881      C1889   1.385       .  A
C1882      C1894   1.414       .  A
C1882      C1890   1.385       .  A
C1883      C1897   1.413       .  A
C1883      C1891   1.387       .  A
C1884      C1892   1.388       .  A
C1884      C1895   1.415       .  A
C1885      C1893   1.384       .  A
C1885      C1896   1.414       .  A
C1886      C1887   1.376       .  A
C1886      H1898   1.082       .  S
C1887      H1899   1.082       .  S
C1888      C1889   1.371       .  A
C1888      H1900   1.082       .  S
C1889      H1901   1.082       .  S
C1890      C1891   1.377       .  A
C1890      H1902   1.082       .  S
C1891      H1903   1.082       .  S
C1892      C1893   1.376       .  A
C1892      H1904   1.082       .  S
C1893      H1905   1.082       .  S
C1894      C2469   1.499       .  S
C1895      C2533   1.488       .  S
C1896      C4101   1.496       .  S
C1897      C4034   1.476       .  S
N1908      C1913   1.357       .  A
N1908      C1912   1.355       .  A
N1908      H1940   1.036       .  S
N1909      C1916   1.353       .  A
N1909      C1917   1.353       .  A
N1910      C1915   1.349       .  A
N1910      C1914   1.351       .  A
N1910      H1941   1.038       .  S
N1911      C1918   1.352       .  A
N1911      C1919   1.352       .  A
C1912      C1920   1.387       .  A
C1912      C1928   1.421       .  A
C1913      C1929   1.423       .  A
C1913      C1921   1.387       .  A
C1914      C1922   1.386       .  A
C1914      C1931   1.407       .  A
C1915      C1930   1.408       .  A
C1915      C1923   1.388       .  A
C1916      C1928   1.418       .  A
C1916      C1924   1.387       .  A
C1917      C1931   1.416       .  A
C1917      C1925   1.386       .  A
C1918      C1926   1.387       .  A
C1918      C1929   1.418       .  A
C1919      C1927   1.385       .  A
C1919      C1930   1.414       .  A
C1920      C1921   1.377       .  A
C1920      H1932   1.082       .  S
C1921      H1933   1.082       .  S
C1922      C1923   1.370       .  A
C1922      H1934   1.082       .  S
C1923      H1935   1.082       .  S
C1924      C1925   1.378       .  A
C1924      H1936   1.082       .  S
C1925      H1937   1.083       .  S
C1926      C1927   1.377       .  A
C1926      H1938   1.082       .  S
C1927      H1939   1.082       .  S
C1928      C2565   1.495       .  S
C1929      C2437   1.503       .  S
C1930      C3074   1.484       .  S
C1931      C3701   1.486       .  S
O1942      C1958   1.274       .  A
O1942     Zn1948   1.989       .  S
C1943      O1959   1.272       .  A
C1943      O1956   1.272       .  A
C1943      C4693   1.487       .  S
O1944      C1957   1.279       .  A
O1944     Cd1951   2.112       .  S
O1945      C1963   1.266       .  A
O1945     Cd1954   2.004       .  S
O1946      C1960   1.275       .  A
O1946     Cd1950   2.066       .  S
O1947      C1958   1.274       .  A
O1947     Cd1950   2.065   1_455  S
Zn1948     O1959   2.018   1_455  S
Zn1948     O1961   1.953       .  S
Zn1948     O1953   1.914   1_455  S
O1949      C1960   1.272       .  A
O1949     Cd1954   2.057       .  S
Cd1950     O1952   2.030   1_655  S
Cd1950     O1953   1.978       .  S
Cd1951     O1955   2.108       .  S
Cd1951     O1964   2.101   1_455  S
Cd1951     O1953   2.031   1_455  S
O1952      C1962   1.268       .  A
O1953     Cd1954   1.971       .  S
Cd1954     O1956   2.046       .  S
O1955      C1962   1.279       .  A
C1957      O1961   1.265       .  A
C1957      C2386   1.472       .  S
C1958      C3346   1.489       .  S
C1960      C2405   1.490       .  S
C1962      C2613   1.471       .  S
C1963      O1964   1.278       .  A
C1963      C2818   1.461       .  S
C1965      C2354   1.500   1_554  S
C1965      N1966   1.367       .  A
C1965      N1970   1.358       .  A
N1966      C1967   1.366       .  A
C1967      C2341   1.492       .  S
C1967      N1968   1.357       .  A
N1968      C1969   1.353       .  A
C1969      C2373   1.486   1_455  S
C1969      N1970   1.355       .  A
N1971      C1976   1.355       .  A
N1971      C1975   1.353       .  A
N1971      H2003   1.037       .  S
N1972      C1979   1.351       .  A
N1972      C1980   1.352       .  A
N1973      C1978   1.351       .  A
N1973      C1977   1.351       .  A
N1973      H2004   1.038       .  S
N1974      C1981   1.351       .  A
N1974      C1982   1.351       .  A
C1975      C1983   1.387       .  A
C1975      C1991   1.418       .  A
C1976      C1992   1.418       .  A
C1976      C1984   1.387       .  A
C1977      C1985   1.386       .  A
C1977      C1994   1.408       .  A
C1978      C1993   1.411       .  A
C1978      C1986   1.388       .  A
C1979      C1991   1.416       .  A
C1979      C1987   1.387       .  A
C1980      C1994   1.413       .  A
C1980      C1988   1.385       .  A
C1981      C1989   1.387       .  A
C1981      C1992   1.416       .  A
C1982      C1990   1.385       .  A
C1982      C1993   1.413       .  A
C1983      C1984   1.373       .  A
C1983      H1995   1.082       .  S
C1984      H1996   1.082       .  S
C1985      C1986   1.369       .  A
C1985      H1997   1.082       .  S
C1986      H1998   1.082       .  S
C1987      C1988   1.377       .  A
C1987      H1999   1.082       .  S
C1988      H2000   1.083       .  S
C1989      C1990   1.377       .  A
C1989      H2001   1.082       .  S
C1990      H2002   1.082       .  S
C1991      C2338   1.492       .  S
C1992      C2322   1.495       .  S
C1993      C4597   1.482       .  S
C1994      C4261   1.485       .  S
C2005      C2274   1.490       .  S
C2005      N2006   1.354       .  A
C2005      N2010   1.359       .  A
N2006      C2007   1.354       .  A
C2007      C2306   1.490   1_545  S
C2007      N2008   1.363       .  A
N2008      C2009   1.366       .  A
C2009      C2293   1.508   1_455  S
C2009      N2010   1.364       .  A
C2011      C2325   1.492       .  S
C2011      N2012   1.362       .  A
C2011      N2016   1.358       .  A
N2012      C2013   1.363       .  A
C2013      C2258   1.503       .  S
C2013      N2014   1.362       .  A
N2014      C2015   1.360       .  A
C2015      C2242   1.501       .  S
C2015      N2016   1.356       .  A
N2017      C2022   1.355       .  A
N2017      C2021   1.354       .  A
N2017      H2049   1.037       .  S
N2018      C2025   1.349       .  A
N2018      C2026   1.352       .  A
N2019      C2024   1.346       .  A
N2019      C2023   1.347       .  A
N2019      H2050   1.037       .  S
N2020      C2027   1.349       .  A
N2020      C2028   1.350       .  A
C2021      C2029   1.389       .  A
C2021      C2037   1.420       .  A
C2022      C2038   1.417       .  A
C2022      C2030   1.386       .  A
C2023      C2031   1.388       .  A
C2023      C2040   1.404       .  A
C2024      C2039   1.404       .  A
C2024      C2032   1.387       .  A
C2025      C2037   1.415       .  A
C2025      C2033   1.388       .  A
C2026      C2040   1.411       .  A
C2026      C2034   1.384       .  A
C2027      C2035   1.387       .  A
C2027      C2038   1.411       .  A
C2028      C2036   1.385       .  A
C2028      C2039   1.410       .  A
C2029      C2030   1.377       .  A
C2029      H2041   1.082       .  S
C2030      H2042   1.082       .  S
C2031      C2032   1.371       .  A
C2031      H2043   1.082       .  S
C2032      H2044   1.083       .  S
C2033      C2034   1.377       .  A
C2033      H2045   1.082       .  S
C2034      H2046   1.082       .  S
C2035      C2036   1.376       .  A
C2035      H2047   1.082       .  S
C2036      H2048   1.082       .  S
C2037      C2277   1.491       .  S
C2038      C2245   1.489       .  S
C2039      C4501   1.478       .  S
C2040      C3026   1.480       .  S
C2051      C2194   1.504       .  S
C2051      N2052   1.362       .  A
C2051      N2056   1.361       .  A
N2052      C2053   1.361       .  A
C2053      C2210   1.496   1_545  S
C2053      N2054   1.359       .  A
N2054      C2055   1.360       .  A
C2055      C2226   1.492   1_554  S
C2055      N2056   1.361       .  A
N2057      C2062   1.355       .  A
N2057      C2061   1.355       .  A
N2057      H2089   1.036       .  S
N2058      C2065   1.351       .  A
N2058      C2066   1.352       .  A
N2059      C2064   1.350       .  A
N2059      C2063   1.350       .  A
N2059      H2090   1.037       .  S
N2060      C2067   1.352       .  A
N2060      C2068   1.353       .  A
C2061      C2069   1.387       .  A
C2061      C2077   1.418       .  A
C2062      C2078   1.420       .  A
C2062      C2070   1.388       .  A
C2063      C2071   1.387       .  A
C2063      C2080   1.409       .  A
C2064      C2079   1.410       .  A
C2064      C2072   1.388       .  A
C2065      C2077   1.414       .  A
C2065      C2073   1.386       .  A
C2066      C2080   1.413       .  A
C2066      C2074   1.385       .  A
C2067      C2075   1.387       .  A
C2067      C2078   1.418       .  A
C2068      C2076   1.385       .  A
C2068      C2079   1.417       .  A
C2069      C2070   1.375       .  A
C2069      H2081   1.082       .  S
C2070      H2082   1.082       .  S
C2071      C2072   1.371       .  A
C2071      H2083   1.083       .  S
C2072      H2084   1.083       .  S
C2073      C2074   1.377       .  A
C2073      H2085   1.082       .  S
C2074      H2086   1.082       .  S
C2075      C2076   1.379       .  A
C2075      H2087   1.082       .  S
C2076      H2088   1.082       .  S
C2077      C2261   1.491       .  S
C2078      C2197   1.495       .  S
C2079      C3941   1.489       .  S
C2080      C5077   1.485       .  S
N2091      C2096   1.352       .  A
N2091      C2095   1.356       .  A
N2091      H2123   1.038       .  S
N2092      C2099   1.351       .  A
N2092      C2100   1.348       .  A
N2093      C2098   1.351       .  A
N2093      C2097   1.351       .  A
N2093      H2124   1.039       .  S
N2094      C2101   1.352       .  A
N2094      C2102   1.354       .  A
C2095      C2103   1.386       .  A
C2095      C2111   1.416       .  A
C2096      C2112   1.416       .  A
C2096      C2104   1.388       .  A
C2097      C2105   1.388       .  A
C2097      C2114   1.411       .  A
C2098      C2113   1.408       .  A
C2098      C2106   1.386       .  A
C2099      C2111   1.412       .  A
C2099      C2107   1.386       .  A
C2100      C2114   1.411       .  A
C2100      C2108   1.387       .  A
C2101      C2109   1.387       .  A
C2101      C2112   1.417       .  A
C2102      C2110   1.386       .  A
C2102      C2113   1.416       .  A
C2103      C2104   1.376       .  A
C2103      H2115   1.082       .  S
C2104      H2116   1.082       .  S
C2105      C2106   1.372       .  A
C2105      H2117   1.082       .  S
C2106      H2118   1.082       .  S
C2107      C2108   1.375       .  A
C2107      H2119   1.082       .  S
C2108      H2120   1.082       .  S
C2109      C2110   1.378       .  A
C2109      H2121   1.082       .  S
C2110      H2122   1.083       .  S
C2111      C2229   1.494       .  S
C2112      C2357   1.489       .  S
C2113      C2389   1.490       .  S
C2114      C4181   1.481       .  S
N2125      C2130   1.355       .  A
N2125      C2129   1.355       .  A
N2125      H2157   1.037       .  S
N2126      C2133   1.350       .  A
N2126      C2134   1.351       .  A
N2127      C2132   1.350       .  A
N2127      C2131   1.349       .  A
N2127      H2158   1.037       .  S
N2128      C2135   1.351       .  A
N2128      C2136   1.351       .  A
C2129      C2137   1.386       .  A
C2129      C2145   1.417       .  A
C2130      C2146   1.420       .  A
C2130      C2138   1.388       .  A
C2131      C2139   1.387       .  A
C2131      C2148   1.407       .  A
C2132      C2147   1.408       .  A
C2132      C2140   1.388       .  A
C2133      C2145   1.414       .  A
C2133      C2141   1.387       .  A
C2134      C2148   1.411       .  A
C2134      C2142   1.385       .  A
C2135      C2143   1.387       .  A
C2135      C2146   1.417       .  A
C2136      C2144   1.386       .  A
C2136      C2147   1.414       .  A
C2137      C2138   1.376       .  A
C2137      H2149   1.082       .  S
C2138      H2150   1.082       .  S
C2139      C2140   1.368       .  A
C2139      H2151   1.082       .  S
C2140      H2152   1.082       .  S
C2141      C2142   1.376       .  A
C2141      H2153   1.082       .  S
C2142      H2154   1.082       .  S
C2143      C2144   1.378       .  A
C2143      H2155   1.082       .  S
C2144      H2156   1.083       .  S
C2145      C2213   1.493       .  S
C2146      C2309   1.497       .  S
C2147      C4018   1.482       .  S
C2148      C4338   1.480       .  S
N2159      C2164   1.356       .  A
N2159      C2163   1.354       .  A
N2159      H2191   1.038       .  S
N2160      C2167   1.350       .  A
N2160      C2168   1.352       .  A
N2161      C2166   1.346       .  A
N2161      C2165   1.348       .  A
N2161      H2192   1.037       .  S
N2162      C2169   1.350       .  A
N2162      C2170   1.350       .  A
C2163      C2171   1.387       .  A
C2163      C2179   1.420       .  A
C2164      C2180   1.420       .  A
C2164      C2172   1.387       .  A
C2165      C2173   1.386       .  A
C2165      C2182   1.403       .  A
C2166      C2181   1.404       .  A
C2166      C2174   1.388       .  A
C2167      C2179   1.415       .  A
C2167      C2175   1.388       .  A
C2168      C2182   1.411       .  A
C2168      C2176   1.384       .  A
C2169      C2177   1.387       .  A
C2169      C2180   1.412       .  A
C2170      C2178   1.386       .  A
C2170      C2181   1.411       .  A
C2171      C2172   1.377       .  A
C2171      H2183   1.082       .  S
C2172      H2184   1.082       .  S
C2173      C2174   1.370       .  A
C2173      H2185   1.082       .  S
C2174      H2186   1.082       .  S
C2175      C2176   1.375       .  A
C2175      H2187   1.082       .  S
C2176      H2188   1.082       .  S
C2177      C2178   1.375       .  A
C2177      H2189   1.082       .  S
C2178      H2190   1.083       .  S
C2179      C2370   1.494       .  S
C2180      C2290   1.493       .  S
C2181      C3653   1.472       .  S
C2182      C3570   1.479       .  S
C2193      C2194   1.412       .  A
C2193      C2198   1.406       .  A
C2193      H2200   1.083       .  S
C2194      C2195   1.425       .  A
C2195      C2196   1.409       .  A
C2195      C2202   1.507       .  S
C2196      C2197   1.401       .  A
C2196      H2201   1.084       .  S
C2197      C2198   1.409       .  A
C2198      C2199   1.506       .  S
C2199      H2203   1.111       .  S
C2199      H2204   1.110       .  S
C2199      H2205   1.110       .  S
C2202      H2206   1.110       .  S
C2202      H2207   1.108       .  S
C2202      H2208   1.111       .  S
C2209      C2210   1.408       .  A
C2209      C2214   1.404       .  A
C2209      H2216   1.084   1_565  S
C2210      C2211   1.423       .  A
C2211      C2212   1.408       .  A
C2211      C2218   1.508       .  S
C2212      C2213   1.402       .  A
C2212      H2217   1.084       .  S
C2213      C2214   1.410       .  A
C2214      C2215   1.507       .  S
C2215      H2219   1.111       .  S
C2215      H2220   1.110       .  S
C2215      H2221   1.109       .  S
C2218      H2222   1.110       .  S
C2218      H2223   1.109       .  S
C2218      H2224   1.111       .  S
C2225      C2226   1.409       .  A
C2225      C2230   1.407       .  A
C2225      H2232   1.084       .  S
C2226      C2227   1.420       .  A
C2227      C2228   1.405       .  A
C2227      C2234   1.508       .  S
C2228      C2229   1.402       .  A
C2228      H2233   1.085       .  S
C2229      C2230   1.411       .  A
C2230      C2231   1.506       .  S
C2231      H2235   1.111       .  S
C2231      H2236   1.111       .  S
C2231      H2237   1.109       .  S
C2234      H2238   1.105       .  S
C2234      H2239   1.110       .  S
C2234      H2240   1.111       .  S
C2241      C2242   1.411       .  A
C2241      C2246   1.405       .  A
C2241      H2248   1.083       .  S
C2242      C2243   1.426       .  A
C2243      C2244   1.405       .  A
C2243      C2250   1.508       .  S
C2244      C2245   1.397       .  A
C2244      H2249   1.084       .  S
C2245      C2246   1.408       .  A
C2246      C2247   1.506       .  S
C2247      H2251   1.111       .  S
C2247      H2252   1.110       .  S
C2247      H2253   1.110       .  S
C2250      H2254   1.110       .  S
C2250      H2255   1.110       .  S
C2250      H2256   1.111       .  S
C2257      C2258   1.412       .  A
C2257      C2262   1.404       .  A
C2257      H2264   1.083       .  S
C2258      C2259   1.425       .  A
C2259      C2260   1.409       .  A
C2259      C2266   1.507       .  S
C2260      C2261   1.400       .  A
C2260      H2265   1.084       .  S
C2261      C2262   1.408       .  A
C2262      C2263   1.507       .  S
C2263      H2267   1.111       .  S
C2263      H2268   1.110       .  S
C2263      H2269   1.110       .  S
C2266      H2270   1.109       .  S
C2266      H2271   1.110       .  S
C2266      H2272   1.111       .  S
C2273      C2274   1.408       .  A
C2273      C2278   1.405       .  A
C2273      H2280   1.084       .  S
C2274      C2275   1.420       .  A
C2275      C2276   1.403       .  A
C2275      C2282   1.509       .  S
C2276      C2277   1.400       .  A
C2276      H2281   1.084       .  S
C2277      C2278   1.412       .  A
C2278      C2279   1.508       .  S
C2279      H2283   1.111       .  S
C2279      H2284   1.108       .  S
C2279      H2285   1.110       .  S
C2282      H2286   1.107       .  S
C2282      H2287   1.110       .  S
C2282      H2288   1.111       .  S
C2289      C2290   1.401       .  A
C2289      C2294   1.411       .  A
C2289      H2296   1.084       .  S
C2290      C2291   1.410       .  A
C2291      C2292   1.403       .  A
C2291      C2298   1.509       .  S
C2292      C2293   1.413       .  A
C2292      H2297   1.083       .  S
C2293      C2294   1.426       .  A
C2294      C2295   1.508       .  S
C2295      H2299   1.111       .  S
C2295      H2300   1.110       .  S
C2295      H2301   1.110       .  S
C2298      H2302   1.110       .  S
C2298      H2303   1.108       .  S
C2298      H2304   1.110       .  S
C2305      C2306   1.406       .  A
C2305      C2310   1.409       .  A
C2305      H2312   1.084       .  S
C2306      C2307   1.420       .  A
C2307      C2308   1.403       .  A
C2307      C2314   1.509   1_565  S
C2308      C2309   1.402       .  A
C2308      H2313   1.084       .  S
C2309      C2310   1.417       .  A
C2310      C2311   1.507       .  S
C2311      H2315   1.110       .  S
C2311      H2316   1.111       .  S
C2311      H2317   1.107       .  S
C2314      H2318   1.107       .  S
C2314      H2319   1.110       .  S
C2314      H2320   1.111       .  S
C2321      C2322   1.403       .  A
C2321      C2326   1.407       .  A
C2321      H2328   1.084       .  S
C2322      C2323   1.414       .  A
C2323      C2324   1.402       .  A
C2323      C2330   1.508       .  S
C2324      C2325   1.408       .  A
C2324      H2329   1.083       .  S
C2325      C2326   1.420       .  A
C2326      C2327   1.507       .  S
C2327      H2331   1.111       .  S
C2327      H2332   1.110       .  S
C2327      H2333   1.105       .  S
C2330      H2334   1.108       .  S
C2330      H2335   1.111       .  S
C2330      H2336   1.110       .  S
C2337      C2338   1.400       .  A
C2337      C2342   1.400       .  A
C2337      H2344   1.085       .  S
C2338      C2339   1.415       .  A
C2339      C2340   1.408       .  A
C2339      C2346   1.507       .  S
C2340      C2341   1.408       .  A
C2340      H2345   1.084       .  S
C2341      C2342   1.422       .  A
C2342      C2343   1.510       .  S
C2343      H2347   1.111       .  S
C2343      H2348   1.110       .  S
C2343      H2349   1.106       .  S
C2346      H2350   1.108       .  S
C2346      H2351   1.110       .  S
C2346      H2352   1.110       .  S
C2353      C2354   1.410       .  A
C2353      C2358   1.408       .  A
C2353      H2360   1.084       .  S
C2354      C2355   1.427       .  A
C2355      C2356   1.402       .  A
C2355      C2362   1.509       .  S
C2356      C2357   1.397       .  A
C2356      H2361   1.085       .  S
C2357      C2358   1.412       .  A
C2358      C2359   1.506       .  S
C2359      H2363   1.110       .  S
C2359      H2364   1.108       .  S
C2359      H2365   1.110       .  S
C2362      H2366   1.109       .  S
C2362      H2367   1.110   1_556  S
C2362      H2368   1.111       .  S
C2369      C2370   1.404       .  A
C2369      C2374   1.405       .  A
C2369      H2376   1.084       .  S
C2370      C2371   1.413       .  A
C2371      C2372   1.402       .  A
C2371      C2378   1.508       .  S
C2372      C2373   1.406       .  A
C2372      H2377   1.082       .  S
C2373      C2374   1.417       .  A
C2374      C2375   1.508       .  S
C2375      H2379   1.111       .  S
C2375      H2380   1.111       .  S
C2375      H2381   1.106       .  S
C2378      H2382   1.110       .  S
C2378      H2383   1.107       .  S
C2378      H2384   1.111       .  S
C2385      C2386   1.402       .  A
C2385      C2390   1.406       .  A
C2385      H2392   1.084       .  S
C2386      C2387   1.416       .  A
C2387      C2388   1.402       .  A
C2387      C2394   1.509       .  S
C2388      C2389   1.400       .  A
C2388      H2393   1.084       .  S
C2389      C2390   1.415       .  A
C2390      C2391   1.506       .  S
C2391      H2395   1.111       .  S
C2391      H2396   1.110       .  S
C2391      H2397   1.109       .  S
C2394      H2398   1.109       .  S
C2394      H2399   1.110       .  S
C2394      H2400   1.111       .  S
C2401      C2402   1.397       .  A
C2401      C2406   1.404       .  A
C2401      H2408   1.084       .  S
C2402      C2403   1.409       .  A
C2403      C2404   1.401       .  A
C2403      C2410   1.507       .  S
C2404      C2405   1.407       .  A
C2404      H2409   1.084       .  S
C2405      C2406   1.426       .  A
C2406      C2407   1.509       .  S
C2407      H2411   1.111       .  S
C2407      H2412   1.110       .  S
C2407      H2413   1.109       .  S
C2410      H2414   1.110       .  S
C2410      H2415   1.110       .  S
C2410      H2416   1.111       .  S
C2417      C2418   1.411       .  A
C2417      C2422   1.408       .  A
C2417      H2424   1.084       .  S
C2418      C2419   1.422       .  A
C2419      C2420   1.407       .  A
C2419      C2426   1.507       .  S
C2420      C2421   1.401       .  A
C2420      H2425   1.084       .  S
C2421      C2422   1.412       .  A
C2422      C2423   1.507       .  S
C2423      H2427   1.111       .  S
C2423      H2428   1.110       .  S
C2423      H2429   1.109       .  S
C2426      H2430   1.110       .  S
C2426      H2431   1.104       .  S
C2426      H2432   1.111       .  S
C2433      C2434   1.409       .  A
C2433      C2438   1.411       .  A
C2433      H2440   1.084       .  S
C2434      C2435   1.420       .  A
C2435      C2436   1.407       .  A
C2435      C2442   1.507       .  S
C2436      C2437   1.403       .  A
C2436      H2441   1.084       .  S
C2437      C2438   1.416       .  A
C2438      C2439   1.508       .  S
C2439      H2443   1.111       .  S
C2439      H2444   1.110       .  S
C2439      H2445   1.108       .  S
C2442      H2446   1.110       .  S
C2442      H2447   1.104       .  S
C2442      H2448   1.111       .  S
C2449      C2450   1.414       .  A
C2449      C2454   1.410       .  A
C2449      H2456   1.083       .  S
C2450      C2451   1.425       .  A
C2451      C2452   1.406       .  A
C2451      C2458   1.508       .  S
C2452      C2453   1.399       .  A
C2452      H2457   1.084       .  S
C2453      C2454   1.410       .  A
C2454      C2455   1.506       .  S
C2455      H2459   1.111       .  S
C2455      H2460   1.110       .  S
C2455      H2461   1.110       .  S
C2458      H2462   1.110   1_455  S
C2458      H2463   1.110       .  S
C2458      H2464   1.111       .  S
C2465      C2466   1.408       .  A
C2465      C2470   1.411       .  A
C2465      H2472   1.084       .  S
C2466      C2467   1.420       .  A
C2467      C2468   1.403       .  A
C2467      C2474   1.509       .  S
C2468      C2469   1.401       .  A
C2468      H2473   1.084       .  S
C2469      C2470   1.416       .  A
C2470      C2471   1.507       .  S
C2471      H2475   1.111       .  S
C2471      H2476   1.108       .  S
C2471      H2477   1.110       .  S
C2474      H2478   1.107       .  S
C2474      H2479   1.111       .  S
C2474      H2480   1.111       .  S
C2481      C2482   1.410       .  A
C2481      C2486   1.408       .  A
C2481      H2488   1.084       .  S
C2482      C2483   1.425       .  A
C2483      C2484   1.406       .  A
C2483      C2490   1.508       .  S
C2484      C2485   1.400       .  A
C2484      H2489   1.084       .  S
C2485      C2486   1.413       .  A
C2486      C2487   1.507       .  S
C2487      H2491   1.110       .  S
C2487      H2492   1.108       .  S
C2487      H2493   1.110       .  S
C2490      H2494   1.110       .  S
C2490      H2495   1.110       .  S
C2490      H2496   1.111       .  S
C2497      C2498   1.407       .  A
C2497      C2502   1.405       .  A
C2497      H2504   1.083   1_455  S
C2498      C2499   1.421       .  A
C2499      C2500   1.409       .  A
C2499      C2506   1.508       .  S
C2500      C2501   1.402       .  A
C2500      H2505   1.084       .  S
C2501      C2502   1.411       .  A
C2502      C2503   1.507       .  S
C2503      H2507   1.111       .  S
C2503      H2508   1.109       .  S
C2503      H2509   1.110       .  S
C2506      H2510   1.107       .  S
C2506      H2511   1.110       .  S
C2506      H2512   1.111       .  S
C2513      C2514   1.408       .  A
C2513      C2518   1.401       .  A
C2513      H2520   1.084       .  S
C2514      C2515   1.421       .  A
C2515      C2516   1.406       .  A
C2515      C2522   1.507       .  S
C2516      C2517   1.402       .  A
C2516      H2521   1.084       .  S
C2517      C2518   1.413       .  A
C2518      C2519   1.508       .  S
C2519      H2523   1.110       .  S
C2519      H2524   1.108       .  S
C2519      H2525   1.110       .  S
C2522      H2526   1.110       .  S
C2522      H2527   1.104       .  S
C2522      H2528   1.111       .  S
C2529      C2530   1.407       .  A
C2529      C2534   1.402       .  A
C2529      H2536   1.084       .  S
C2530      C2531   1.418       .  A
C2531      C2532   1.405       .  A
C2531      C2538   1.507       .  S
C2532      C2533   1.402       .  A
C2532      H2537   1.084       .  S
C2533      C2534   1.410       .  A
C2534      C2535   1.508       .  S
C2535      H2539   1.111       .  S
C2535      H2540   1.111       .  S
C2535      H2541   1.108       .  S
C2538      H2542   1.110       .  S
C2538      H2543   1.104       .  S
C2538      H2544   1.111       .  S
C2545      C2546   1.398       .  A
C2545      C2550   1.403       .  A
C2545      H2552   1.084       .  S
C2546      C2547   1.408       .  A
C2547      C2548   1.405       .  A
C2547      C2554   1.506       .  S
C2548      C2549   1.411       .  A
C2548      H2553   1.083       .  S
C2549      C2550   1.426       .  A
C2550      C2551   1.509       .  S
C2551      H2555   1.111       .  S
C2551      H2556   1.110       .  S
C2551      H2557   1.110       .  S
C2554      H2558   1.110       .  S
C2554      H2559   1.110       .  S
C2554      H2560   1.111       .  S
C2561      C2562   1.410       .  A
C2561      C2566   1.407       .  A
C2561      H2568   1.084       .  S
C2562      C2563   1.430       .  A
C2563      C2564   1.409       .  A
C2563      C2570   1.509       .  S
C2564      C2565   1.398       .  A
C2564      H2569   1.084       .  S
C2565      C2566   1.412       .  A
C2566      C2567   1.507       .  S
C2567      H2571   1.110       .  S
C2567      H2572   1.108       .  S
C2567      H2573   1.110       .  S
C2570      H2574   1.109       .  S
C2570      H2575   1.110       .  S
C2570      H2576   1.111       .  S
C2577      C2578   1.410       .  A
C2577      C2582   1.409       .  A
C2577      H2584   1.084       .  S
C2578      C2579   1.423       .  A
C2579      C2580   1.409       .  A
C2579      C2586   1.507       .  S
C2580      C2581   1.402       .  A
C2580      H2585   1.084       .  S
C2581      C2582   1.415       .  A
C2582      C2583   1.507       .  S
C2583      H2587   1.111       .  S
C2583      H2588   1.110       .  S
C2583      H2589   1.108       .  S
C2586      H2590   1.105       .  S
C2586      H2591   1.110       .  S
C2586      H2592   1.111       .  S
C2593      C2594   1.404       .  A
C2593      C2598   1.409       .  A
C2593      H2600   1.084       .  S
C2594      C2595   1.412       .  A
C2595      C2596   1.405       .  A
C2595      C2602   1.507       .  S
C2596      C2597   1.409       .  A
C2596      H2601   1.083       .  S
C2597      C2598   1.419       .  A
C2598      C2599   1.506       .  S
C2599      H2603   1.111       .  S
C2599      H2604   1.105       .  S
C2599      H2605   1.110       .  S
C2602      H2606   1.109       .  S
C2602      H2607   1.110       .  S
C2602      H2608   1.111       .  S
C2609      C2610   1.403       .  A
C2609      C2614   1.405       .  A
C2609      H2616   1.084       .  S
C2610      C2611   1.410       .  A
C2611      C2612   1.402       .  A
C2611      C2618   1.507       .  S
C2612      C2613   1.404       .  A
C2612      H2617   1.084       .  S
C2613      C2614   1.411       .  A
C2614      C2615   1.506       .  S
C2615      H2619   1.111       .  S
C2615      H2620   1.110       .  S
C2615      H2621   1.111       .  S
C2618      H2622   1.110       .  S
C2618      H2623   1.110       .  S
C2618      H2624   1.111       .  S
C2625      C2626   1.405       .  A
C2625      C2630   1.400       .  A
C2625      H2632   1.084   1_655  S
C2626      C2627   1.419       .  A
C2627      C2628   1.404       .  A
C2627      C2634   1.508       .  S
C2628      C2629   1.401       .  A
C2628      H2633   1.084       .  S
C2629      C2630   1.413       .  A
C2630      C2631   1.508       .  S
C2631      H2635   1.110       .  S
C2631      H2636   1.108       .  S
C2631      H2637   1.110       .  S
C2634      H2638   1.107       .  S
C2634      H2639   1.110       .  S
C2634      H2640   1.111       .  S
C2641      C2642   1.397       .  A
C2641      C2646   1.406       .  A
C2641      H2648   1.084       .  S
C2642      C2643   1.407       .  A
C2643      C2644   1.404       .  A
C2643      C2650   1.506       .  S
C2644      C2645   1.412       .  A
C2644      H2649   1.083       .  S
C2645      C2646   1.428       .  A
C2646      C2647   1.509       .  S
C2647      H2651   1.111       .  S
C2647      H2652   1.110       .  S
C2647      H2653   1.110       .  S
C2650      H2654   1.110       .  S
C2650      H2655   1.110       .  S
C2650      H2656   1.111       .  S
C2657      C2658   1.405       .  A
C2657      C2662   1.399       .  A
C2657      H2664   1.084       .  S
C2658      C2659   1.419       .  A
C2659      C2660   1.404       .  A
C2659      C2666   1.508       .  S
C2660      C2661   1.402       .  A
C2660      H2665   1.084       .  S
C2661      C2662   1.412       .  A
C2662      C2663   1.508       .  S
C2663      H2667   1.110       .  S
C2663      H2668   1.110       .  S
C2663      H2669   1.107       .  S
C2666      H2670   1.107       .  S
C2666      H2671   1.110       .  S
C2666      H2672   1.111       .  S
C2673      C2674   1.402       .  A
C2673      C2678   1.408       .  A
C2673      H2680   1.084       .  S
C2674      C2675   1.413       .  A
C2675      C2676   1.406       .  A
C2675      C2682   1.508       .  S
C2676      C2677   1.408       .  A
C2676      H2681   1.084       .  S
C2677      C2678   1.422       .  A
C2678      C2679   1.508       .  S
C2679      H2683   1.111       .  S
C2679      H2684   1.110       .  S
C2679      H2685   1.106       .  S
C2682      H2686   1.110       .  S
C2682      H2687   1.109       .  S
C2682      H2688   1.111       .  S
C2689      C2690   1.405       .  A
C2689      C2694   1.406       .  A
C2689      H2696   1.084       .  S
C2690      C2691   1.417       .  A
C2691      C2692   1.408       .  A
C2691      C2698   1.507       .  S
C2692      C2693   1.407       .  A
C2692      H2697   1.084       .  S
C2693      C2694   1.420       .  A
C2694      C2695   1.508       .  S
C2695      H2699   1.111       .  S
C2695      H2700   1.110       .  S
C2695      H2701   1.106       .  S
C2698      H2702   1.107       .  S
C2698      H2703   1.110       .  S
C2698      H2704   1.110       .  S
C2705      C2706   1.407       .  A
C2705      C2710   1.406       .  A
C2705      H2712   1.084       .  S
C2706      C2707   1.422       .  A
C2707      C2708   1.407       .  A
C2707      C2714   1.509       .  S
C2708      C2709   1.402       .  A
C2708      H2713   1.084       .  S
C2709      C2710   1.415       .  A
C2710      C2711   1.507       .  S
C2711      H2715   1.110       .  S
C2711      H2716   1.110       .  S
C2711      H2717   1.107       .  S
C2714      H2718   1.108       .  S
C2714      H2719   1.111       .  S
C2714      H2720   1.111       .  S
C2721      C2722   1.409       .  A
C2721      C2726   1.409       .  A
C2721      H2728   1.084       .  S
C2722      C2723   1.423       .  A
C2723      C2724   1.402       .  A
C2723      C2730   1.507       .  S
C2724      C2725   1.397       .  A
C2724      H2729   1.084       .  S
C2725      C2726   1.412       .  A
C2726      C2727   1.506       .  S
C2727      H2731   1.111       .  S
C2727      H2732   1.110       .  S
C2727      H2733   1.109       .  S
C2730      H2734   1.110       .  S
C2730      H2735   1.109       .  S
C2730      H2736   1.111       .  S
C2737      C2738   1.405       .  A
C2737      C2742   1.401       .  A
C2737      H2744   1.081       .  S
C2738      C2739   1.417       .  A
C2739      C2740   1.409       .  A
C2739      C2746   1.507       .  S
C2740      C2741   1.405       .  A
C2740      H2745   1.084       .  S
C2741      C2742   1.413       .  A
C2742      C2743   1.509       .  S
C2743      H2747   1.111       .  S
C2743      H2748   1.108       .  S
C2743      H2749   1.110       .  S
C2746      H2750   1.107       .  S
C2746      H2751   1.111       .  S
C2746      H2752   1.111       .  S
C2753      C2754   1.401       .  A
C2753      C2758   1.412       .  A
C2753      H2760   1.084       .  S
C2754      C2755   1.410       .  A
C2755      C2756   1.406       .  A
C2755      C2762   1.507       .  S
C2756      C2757   1.413       .  A
C2756      H2761   1.083       .  S
C2757      C2758   1.427       .  A
C2758      C2759   1.508       .  S
C2759      H2763   1.111       .  S
C2759      H2764   1.110       .  S
C2759      H2765   1.110       .  S
C2762      H2766   1.109       .  S
C2762      H2767   1.110       .  S
C2762      H2768   1.111       .  S
C2769      C2770   1.410       .  A
C2769      C2774   1.405       .  A
C2769      H2776   1.083       .  S
C2770      C2771   1.426       .  A
C2771      C2772   1.406       .  A
C2771      C2778   1.509       .  S
C2772      C2773   1.398       .  A
C2772      H2777   1.084       .  S
C2773      C2774   1.409       .  A
C2774      C2775   1.506       .  S
C2775      H2779   1.111       .  S
C2775      H2780   1.110       .  S
C2775      H2781   1.110       .  S
C2778      H2782   1.109       .  S
C2778      H2783   1.110       .  S
C2778      H2784   1.111       .  S
C2785      C2786   1.405       .  A
C2785      C2790   1.401       .  A
C2785      H2792   1.084   1_655  S
C2786      C2787   1.422       .  A
C2787      C2788   1.408       .  A
C2787      C2794   1.508       .  S
C2788      C2789   1.402       .  A
C2788      H2793   1.084       .  S
C2789      C2790   1.414       .  A
C2790      C2791   1.508       .  S
C2791      H2795   1.110       .  S
C2791      H2796   1.108       .  S
C2791      H2797   1.110       .  S
C2794      H2798   1.110       .  S
C2794      H2799   1.107       .  S
C2794      H2800   1.111       .  S
C2801      C2802   1.406       .  A
C2801      C2806   1.402       .  A
C2801      H2808   1.084       .  S
C2802      C2803   1.417       .  A
C2803      C2804   1.404       .  A
C2803      C2810   1.508       .  S
C2804      C2805   1.403       .  A
C2804      H2809   1.084       .  S
C2805      C2806   1.414       .  A
C2806      C2807   1.508       .  S
C2807      H2811   1.110       .  S
C2807      H2812   1.111       .  S
C2807      H2813   1.107       .  S
C2810      H2814   1.107       .  S
C2810      H2815   1.111       .  S
C2810      H2816   1.111       .  S
C2817      C2818   1.403       .  A
C2817      C2822   1.397       .  A
C2817      H2824   1.085       .  S
C2818      C2819   1.408       .  A
C2819      C2820   1.403       .  A
C2819      C2826   1.505       .  S
C2820      C2821   1.405       .  A
C2820      H2825   1.084       .  S
C2821      C2822   1.410       .  A
C2822      C2823   1.508       .  S
C2823      H2827   1.110       .  S
C2823      H2828   1.110       .  S
C2823      H2829   1.108       .  S
C2826      H2830   1.110       .  S
C2826      H2831   1.110       .  S
C2826      H2832   1.111       .  S
C2833      C2834   1.401       .  A
C2833      C2838   1.407       .  A
C2833      H2840   1.084       .  S
C2834      C2835   1.412       .  A
C2835      C2836   1.405       .  A
C2835      C2842   1.508       .  S
C2836      C2837   1.410       .  A
C2836      H2841   1.083       .  S
C2837      C2838   1.421       .  A
C2838      C2839   1.503       .  S
C2839      H2843   1.111       .  S
C2839      H2844   1.107       .  S
C2839      H2845   1.110       .  S
C2842      H2846   1.109       .  S
C2842      H2847   1.110       .  S
C2842      H2848   1.111       .  S
C2849      C2850   1.410       .  A
C2849      C2854   1.406       .  A
C2849      H2856   1.083       .  S
C2850      C2851   1.423       .  A
C2851      C2852   1.409       .  A
C2851      C2858   1.508       .  S
C2852      C2853   1.402       .  A
C2852      H2857   1.084       .  S
C2853      C2854   1.412       .  A
C2854      C2855   1.508       .  S
C2855      H2859   1.111       .  S
C2855      H2860   1.110       .  S
C2855      H2861   1.109       .  S
C2858      H2862   1.110       .  S
C2858      H2863   1.109       .  S
C2858      H2864   1.111       .  S
C2865      C2866   1.407       .  A
C2865      C2870   1.405       .  A
C2865      H2872   1.084       .  S
C2866      C2867   1.420       .  A
C2867      C2868   1.408       .  A
C2867      C2874   1.505       .  S
C2868      C2869   1.404       .  A
C2868      H2873   1.085       .  S
C2869      C2870   1.416       .  A
C2870      C2871   1.508       .  S
C2871      H2875   1.111       .  S
C2871      H2876   1.108       .  S
C2871      H2877   1.110       .  S
C2874      H2878   1.105       .  S
C2874      H2879   1.110       .  S
C2874      H2880   1.111       .  S
C2881      C2882   1.411       .  A
C2881      C2886   1.403       .  A
C2881      H2888   1.083       .  S
C2882      C2883   1.424       .  A
C2883      C2884   1.403       .  A
C2883      C2890   1.509       .  S
C2884      C2885   1.398       .  A
C2884      H2889   1.084       .  S
C2885      C2886   1.406       .  A
C2886      C2887   1.506       .  S
C2887      H2891   1.111       .  S
C2887      H2892   1.110       .  S
C2887      H2893   1.110       .  S
C2890      H2894   1.110       .  S
C2890      H2895   1.109       .  S
C2890      H2896   1.111       .  S
C2897      C2898   1.397       .  A
C2897      C2902   1.405       .  A
C2897      H2904   1.084       .  S
C2898      C2899   1.409       .  A
C2899      C2900   1.404       .  A
C2899      C2906   1.507       .  S
C2900      C2901   1.411       .  A
C2900      H2905   1.083       .  S
C2901      C2902   1.424       .  A
C2902      C2903   1.504       .  S
C2903      H2907   1.111       .  S
C2903      H2908   1.109       .  S
C2903      H2909   1.108       .  S
C2906      H2910   1.110       .  S
C2906      H2911   1.110       .  S
C2906      H2912   1.111       .  S
C2913      C2914   1.407       .  A
C2913      C2918   1.404       .  A
C2913      H2920   1.084       .  S
C2914      C2915   1.416       .  A
C2915      C2916   1.401       .  A
C2915      C2922   1.505       .  S
C2916      C2917   1.404       .  A
C2916      H2921   1.085       .  S
C2917      C2918   1.415       .  A
C2918      C2919   1.508       .  S
C2919      H2923   1.110       .  S
C2919      H2924   1.107       .  S
C2919      H2925   1.110       .  S
C2922      H2926   1.105       .  S
C2922      H2927   1.110       .  S
C2922      H2928   1.111       .  S
C2929      C2930   1.409       .  A
C2929      C2934   1.402       .  A
C2929      H2936   1.082       .  S
C2930      C2931   1.425       .  A
C2931      C2932   1.404       .  A
C2931      C2938   1.509       .  S
C2932      C2933   1.399       .  A
C2932      H2937   1.084       .  S
C2933      C2934   1.409       .  A
C2934      C2935   1.507       .  S
C2935      H2939   1.111       .  S
C2935      H2940   1.110       .  S
C2935      H2941   1.109       .  S
C2938      H2942   1.110       .  S
C2938      H2943   1.109       .  S
C2938      H2944   1.111       .  S
C2945      C2946   1.409   1_565  A
C2945      C2950   1.401       .  A
C2945      H2952   1.084       .  S
C2946      C2947   1.422       .  A
C2947      C2948   1.403   1_545  A
C2947      C2954   1.507       .  S
C2948      C2949   1.399       .  A
C2948      H2953   1.084       .  S
C2949      C2950   1.411       .  A
C2950      C2951   1.508       .  S
C2951      H2955   1.111       .  S
C2951      H2956   1.108       .  S
C2951      H2957   1.110       .  S
C2954      H2958   1.110       .  S
C2954      H2959   1.109       .  S
C2954      H2960   1.111       .  S
C2961      C2962   1.401       .  A
C2961      C2966   1.406       .  A
C2961      H2968   1.084       .  S
C2962      C2963   1.410       .  A
C2963      C2964   1.401       .  A
C2963      C2970   1.508       .  S
C2964      C2965   1.407       .  A
C2964      H2969   1.082       .  S
C2965      C2966   1.421       .  A
C2966      C2967   1.506       .  S
C2967      H2971   1.111       .  S
C2967      H2972   1.108       .  S
C2967      H2973   1.110       .  S
C2970      H2974   1.109       .  S
C2970      H2975   1.110       .  S
C2970      H2976   1.111       .  S
C2977      C2978   1.410       .  A
C2977      C2982   1.403       .  A
C2977      H2984   1.084       .  S
C2978      C2979   1.426       .  A
C2979      C2980   1.406       .  A
C2979      C2986   1.509       .  S
C2980      C2981   1.399       .  A
C2980      H2985   1.084       .  S
C2981      C2982   1.411       .  A
C2982      C2983   1.507       .  S
C2983      H2987   1.110       .  S
C2983      H2988   1.108       .  S
C2983      H2989   1.110       .  S
C2986      H2990   1.110       .  S
C2986      H2991   1.109       .  S
C2986      H2992   1.111       .  S
C2993      C2994   1.407       .  A
C2993      C2998   1.405       .  A
C2993      H3000   1.084       .  S
C2994      C2995   1.418       .  A
C2995      C2996   1.408       .  A
C2995      C3002   1.507       .  S
C2996      C2997   1.404       .  A
C2996      H3001   1.084       .  S
C2997      C2998   1.415       .  A
C2998      C2999   1.507       .  S
C2999      H3003   1.111       .  S
C2999      H3004   1.110       .  S
C2999      H3005   1.108       .  S
C3002      H3006   1.107       .  S
C3002      H3007   1.111       .  S
C3002      H3008   1.111       .  S
C3009      C3010   1.409   1_565  A
C3009      C3014   1.406       .  A
C3009      H3016   1.083       .  S
C3010      C3011   1.420       .  A
C3011      C3012   1.407   1_545  A
C3011      C3018   1.507       .  S
C3012      C3013   1.403       .  A
C3012      H3017   1.084       .  S
C3013      C3014   1.412       .  A
C3014      C3015   1.508       .  S
C3015      H3019   1.111       .  S
C3015      H3020   1.108       .  S
C3015      H3021   1.110       .  S
C3018      H3022   1.108       .  S
C3018      H3023   1.111       .  S
C3018      H3024   1.111       .  S
C3025      C3026   1.395       .  A
C3025      C3030   1.402       .  A
C3025      H3032   1.084       .  S
C3026      C3027   1.409       .  A
C3027      C3028   1.401       .  A
C3027      C3034   1.507       .  S
C3028      C3029   1.407       .  A
C3028      H3033   1.084       .  S
C3029      C3030   1.427       .  A
C3030      C3031   1.509       .  S
C3031      H3035   1.111       .  S
C3031      H3036   1.108       .  S
C3031      H3037   1.110       .  S
C3034      H3038   1.110       .  S
C3034      H3039   1.110       .  S
C3034      H3040   1.111       .  S
C3041      C3042   1.406       .  A
C3041      C3046   1.404       .  A
C3041      H3048   1.084       .  S
C3042      C3043   1.424       .  A
C3043      C3044   1.403       .  A
C3043      C3050   1.510       .  S
C3044      C3045   1.397       .  A
C3044      H3049   1.084       .  S
C3045      C3046   1.414       .  A
C3046      C3047   1.507       .  S
C3047      H3051   1.110       .  S
C3047      H3052   1.111       .  S
C3047      H3053   1.108       .  S
C3050      H3054   1.110       .  S
C3050      H3055   1.110       .  S
C3050      H3056   1.111       .  S
C3057      C3058   1.401       .  A
C3057      C3062   1.405       .  A
C3057      H3064   1.084       .  S
C3058      C3059   1.406       .  A
C3059      C3060   1.399       .  A
C3059      C3066   1.508       .  S
C3060      C3061   1.413       .  A
C3060      H3065   1.083       .  S
C3061      C3062   1.420       .  A
C3062      C3063   1.507       .  S
C3063      H3067   1.111       .  S
C3063      H3068   1.109       .  S
C3063      H3069   1.111       .  S
C3066      H3070   1.110       .  S
C3066      H3071   1.110       .  S
C3066      H3072   1.111       .  S
C3073      C3074   1.406       .  A
C3073      C3078   1.407       .  A
C3073      H3080   1.084       .  S
C3074      C3075   1.408       .  A
C3075      C3076   1.398       .  A
C3075      C3082   1.508       .  S
C3076      C3077   1.405       .  A
C3076      H3081   1.085       .  S
C3077      C3078   1.410       .  A
C3078      C3079   1.505       .  S
C3079      H3083   1.111       .  S
C3079      H3084   1.110       .  S
C3079      H3085   1.110       .  S
C3082      H3086   1.110       .  S
C3082      H3087   1.110       .  S
C3082      H3088   1.111       .  S
C3089      C3090   1.400       .  A
C3089      C3094   1.403       .  A
C3089      H3096   1.084       .  S
C3090      C3091   1.414       .  A
C3091      C3092   1.402       .  A
C3091      C3098   1.508       .  S
C3092      C3093   1.400       .  A
C3092      H3097   1.084       .  S
C3093      C3094   1.413       .  A
C3094      C3095   1.507       .  S
C3095      H3099   1.111       .  S
C3095      H3100   1.110       .  S
C3095      H3101   1.110       .  S
C3098      H3102   1.110       .  S
C3098      H3103   1.110       .  S
C3098      H3104   1.111       .  S
C3105      C3106   1.411       .  A
C3105      C3110   1.399       .  A
C3105      H3112   1.084       .  S
C3106      C3107   1.419       .  A
C3107      C3108   1.402       .  A
C3107      C3114   1.508       .  S
C3108      C3109   1.400       .  A
C3108      H3113   1.084       .  S
C3109      C3110   1.405       .  A
C3110      C3111   1.507       .  S
C3111      H3115   1.111       .  S
C3111      H3116   1.110       .  S
C3111      H3117   1.110       .  S
C3114      H3118   1.110       .  S
C3114      H3119   1.109       .  S
C3114      H3120   1.111       .  S
C3121      C3122   1.406       .  A
C3121      C3126   1.404       .  A
C3121      H3128   1.084       .  S
C3122      C3123   1.423       .  A
C3123      C3124   1.401       .  A
C3123      C3130   1.510       .  S
C3124      C3125   1.397       .  A
C3124      H3129   1.084       .  S
C3125      C3126   1.411       .  A
C3126      C3127   1.507       .  S
C3127      H3131   1.111       .  S
C3127      H3132   1.110       .  S
C3127      H3133   1.110       .  S
C3130      H3134   1.111       .  S
C3130      H3135   1.110       .  S
C3130      H3136   1.111       .  S
C3137      C3138   1.396       .  A
C3137      C3142   1.400       .  A
C3137      H3144   1.085       .  S
C3138      C3139   1.410       .  A
C3139      C3140   1.400       .  A
C3139      C3146   1.508       .  S
C3140      C3141   1.409       .  A
C3140      H3145   1.084       .  S
C3141      C3142   1.425       .  A
C3142      C3143   1.510       .  S
C3143      H3147   1.111       .  S
C3143      H3148   1.110       .  S
C3143      H3149   1.109       .  S
C3146      H3150   1.110       .  S
C3146      H3151   1.108       .  S
C3146      H3152   1.111       .  S
C3153      C3154   1.406       .  A
C3153      C3158   1.404       .  A
C3153      H3160   1.084       .  S
C3154      C3155   1.420       .  A
C3155      C3156   1.404       .  A
C3155      C3162   1.507       .  S
C3156      C3157   1.401       .  A
C3156      H3161   1.084       .  S
C3157      C3158   1.413       .  A
C3158      C3159   1.508       .  S
C3159      H3163   1.111       .  S
C3159      H3164   1.110       .  S
C3159      H3165   1.109       .  S
C3162      H3166   1.111       .  S
C3162      H3167   1.108       .  S
C3162      H3168   1.111       .  S
C3169      C3170   1.402       .  A
C3169      C3174   1.404       .  A
C3169      H3176   1.084       .  S
C3170      C3171   1.410       .  A
C3171      C3172   1.402       .  A
C3171      C3178   1.507       .  S
C3172      C3173   1.407       .  A
C3172      H3177   1.083       .  S
C3173      C3174   1.419       .  A
C3174      C3175   1.508       .  S
C3175      H3179   1.111       .  S
C3175      H3180   1.107       .  S
C3175      H3181   1.110       .  S
C3178      H3182   1.108       .  S
C3178      H3183   1.110       .  S
C3178      H3184   1.111       .  S
C3185      C3186   1.409       .  A
C3185      C3190   1.402       .  A
C3185      H3192   1.084       .  S
C3186      C3187   1.420       .  A
C3187      C3188   1.404       .  A
C3187      C3194   1.508       .  S
C3188      C3189   1.401       .  A
C3188      H3193   1.085       .  S
C3189      C3190   1.409       .  A
C3190      C3191   1.508       .  S
C3191      H3195   1.111       .  S
C3191      H3196   1.109       .  S
C3191      H3197   1.110       .  S
C3194      H3198   1.110       .  S
C3194      H3199   1.105       .  S
C3194      H3200   1.111       .  S
C3201      C3202   1.398       .  A
C3201      C3206   1.402       .  A
C3201      H3208   1.084       .  S
C3202      C3203   1.408       .  A
C3203      C3204   1.401       .  A
C3203      C3210   1.507       .  S
C3204      C3205   1.407       .  A
C3204      H3209   1.084       .  S
C3205      C3206   1.421       .  A
C3206      C3207   1.508       .  S
C3207      H3211   1.111       .  S
C3207      H3212   1.109       .  S
C3207      H3213   1.110       .  S
C3210      H3214   1.110       .  S
C3210      H3215   1.110       .  S
C3210      H3216   1.111       .  S
C3217      C3218   1.410       .  A
C3217      C3222   1.402       .  A
C3217      H3224   1.084       .  S
C3218      C3219   1.420       .  A
C3219      C3220   1.404       .  A
C3219      C3226   1.508       .  S
C3220      C3221   1.402       .  A
C3220      H3225   1.084       .  S
C3221      C3222   1.411       .  A
C3222      C3223   1.507       .  S
C3223      H3227   1.110       .  S
C3223      H3228   1.110       .  S
C3223      H3229   1.108       .  S
C3226      H3230   1.109       .  S
C3226      H3231   1.110   1_556  S
C3226      H3232   1.111       .  S
C3233      C3234   1.409       .  A
C3233      C3238   1.404       .  A
C3233      H3240   1.082       .  S
C3234      C3235   1.425       .  A
C3235      C3236   1.410       .  A
C3235      C3242   1.506       .  S
C3236      C3237   1.401       .  A
C3236      H3241   1.084       .  S
C3237      C3238   1.413       .  A
C3238      C3239   1.508       .  S
C3239      H3243   1.111       .  S
C3239      H3244   1.108       .  S
C3239      H3245   1.110       .  S
C3242      H3246   1.110   1_554  S
C3242      H3247   1.108       .  S
C3242      H3248   1.111       .  S
C3249      C3250   1.400       .  A
C3249      C3254   1.408       .  A
C3249      H3256   1.084       .  S
C3250      C3251   1.409       .  A
C3251      C3252   1.403       .  A
C3251      C3258   1.508       .  S
C3252      C3253   1.412       .  A
C3252      H3257   1.081       .  S
C3253      C3254   1.425       .  A
C3254      C3255   1.507       .  S
C3255      H3259   1.111       .  S
C3255      H3260   1.110       .  S
C3255      H3261   1.110       .  S
C3258      H3262   1.110       .  S
C3258      H3263   1.108       .  S
C3258      H3264   1.111       .  S
C3265      C3266   1.397       .  A
C3265      C3270   1.406       .  A
C3265      H3272   1.084       .  S
C3266      C3267   1.407       .  A
C3267      C3268   1.403       .  A
C3267      C3274   1.507       .  S
C3268      C3269   1.411       .  A
C3268      H3273   1.081       .  S
C3269      C3270   1.428       .  A
C3270      C3271   1.507       .  S
C3271      H3275   1.111       .  S
C3271      H3276   1.110       .  S
C3271      H3277   1.109   1_556  S
C3274      H3278   1.110       .  S
C3274      H3279   1.110       .  S
C3274      H3280   1.111       .  S
C3281      C3282   1.402       .  A
C3281      C3286   1.404       .  A
C3281      H3288   1.084       .  S
C3282      C3283   1.414       .  A
C3283      C3284   1.403       .  A
C3283      C3290   1.509       .  S
C3284      C3285   1.406       .  A
C3284      H3289   1.084       .  S
C3285      C3286   1.419       .  A
C3286      C3287   1.508       .  S
C3287      H3291   1.111       .  S
C3287      H3292   1.106       .  S
C3287      H3293   1.110       .  S
C3290      H3294   1.108       .  S
C3290      H3295   1.110       .  S
C3290      H3296   1.111       .  S
C3297      C3298   1.412       .  A
C3297      C3302   1.409       .  A
C3297      H3304   1.083       .  S
C3298      C3299   1.425       .  A
C3299      C3300   1.403       .  A
C3299      C3306   1.510       .  S
C3300      C3301   1.399       .  A
C3300      H3305   1.085       .  S
C3301      C3302   1.410       .  A
C3302      C3303   1.506       .  S
C3303      H3307   1.111       .  S
C3303      H3308   1.110       .  S
C3303      H3309   1.109       .  S
C3306      H3310   1.111       .  S
C3306      H3311   1.109       .  S
C3306      H3312   1.111       .  S
C3313      C3314   1.402       .  A
C3313      C3318   1.405       .  A
C3313      H3320   1.084       .  S
C3314      C3315   1.412       .  A
C3315      C3316   1.405       .  A
C3315      C3322   1.507       .  S
C3316      C3317   1.406       .  A
C3316      H3321   1.084       .  S
C3317      C3318   1.419       .  A
C3318      C3319   1.508       .  S
C3319      H3323   1.111       .  S
C3319      H3324   1.110       .  S
C3319      H3325   1.106       .  S
C3322      H3326   1.110       .  S
C3322      H3327   1.109       .  S
C3322      H3328   1.111       .  S
C3329      C3330   1.410       .  A
C3329      C3334   1.406       .  A
C3329      H3336   1.083       .  S
C3330      C3331   1.422       .  A
C3331      C3332   1.404       .  A
C3331      C3338   1.508       .  S
C3332      C3333   1.400       .  A
C3332      H3337   1.084       .  S
C3333      C3334   1.410       .  A
C3334      C3335   1.506       .  S
C3335      H3339   1.111       .  S
C3335      H3340   1.111       .  S
C3335      H3341   1.109       .  S
C3338      H3342   1.111       .  S
C3338      H3343   1.106       .  S
C3338      H3344   1.111       .  S
C3345      C3346   1.410       .  A
C3345      C3350   1.399       .  A
C3345      H3352   1.084       .  S
C3346      C3347   1.424       .  A
C3347      C3348   1.404       .  A
C3347      C3354   1.509       .  S
C3348      C3349   1.399       .  A
C3348      H3353   1.084       .  S
C3349      C3350   1.407       .  A
C3350      C3351   1.508       .  S
C3351      H3355   1.111       .  S
C3351      H3356   1.110       .  S
C3351      H3357   1.110       .  S
C3354      H3358   1.111       .  S
C3354      H3359   1.110       .  S
C3354      H3360   1.111       .  S
C3361      C3362   1.407       .  A
C3361      C3366   1.406       .  A
C3361      H3368   1.084       .  S
C3362      C3363   1.412       .  A
C3363      C3364   1.397       .  A
C3363      C3370   1.508       .  S
C3364      C3365   1.403       .  A
C3364      H3369   1.085       .  S
C3365      C3366   1.410       .  A
C3366      C3367   1.505       .  S
C3367      H3371   1.111       .  S
C3367      H3372   1.110       .  S
C3367      H3373   1.110       .  S
C3370      H3374   1.107       .  S
C3370      H3375   1.110       .  S
C3370      H3376   1.110       .  S
C3377      C3378   1.407       .  A
C3377      C3382   1.401       .  A
C3377      H3384   1.084       .  S
C3378      C3379   1.422       .  A
C3379      C3380   1.408       .  A
C3379      C3386   1.508       .  S
C3380      C3381   1.402       .  A
C3380      H3385   1.084       .  S
C3381      C3382   1.413       .  A
C3382      C3383   1.508       .  S
C3383      H3387   1.110       .  S
C3383      H3388   1.108       .  S
C3383      H3389   1.110       .  S
C3386      H3390   1.105       .  S
C3386      H3391   1.110       .  S
C3386      H3392   1.111       .  S
C3393      C3394   1.408       .  A
C3393      C3398   1.404       .  A
C3393      H3400   1.084       .  S
C3394      C3395   1.422       .  A
C3395      C3396   1.407       .  A
C3395      C3402   1.508       .  S
C3396      C3397   1.402       .  A
C3396      H3401   1.084       .  S
C3397      C3398   1.413       .  A
C3398      C3399   1.508       .  S
C3399      H3403   1.110       .  S
C3399      H3404   1.111       .  S
C3399      H3405   1.108       .  S
C3402      H3406   1.109       .  S
C3402      H3407   1.110       .  S
C3402      H3408   1.111       .  S
C3409      C3410   1.407       .  A
C3409      C3414   1.408       .  A
C3409      H3416   1.084       .  S
C3410      C3411   1.419       .  A
C3411      C3412   1.402       .  A
C3411      C3418   1.509   1_554  S
C3412      C3413   1.402       .  A
C3412      H3417   1.084       .  S
C3413      C3414   1.418       .  A
C3414      C3415   1.508       .  S
C3415      H3419   1.110       .  S
C3415      H3420   1.110       .  S
C3415      H3421   1.107       .  S
C3418      H3422   1.105       .  S
C3418      H3423   1.111       .  S
C3418      H3424   1.111       .  S
C3425      C3426   1.405       .  A
C3425      C3430   1.405       .  A
C3425      H3432   1.085       .  S
C3426      C3427   1.417       .  A
C3427      C3428   1.404       .  A
C3427      C3434   1.508       .  S
C3428      C3429   1.405       .  A
C3428      H3433   1.085       .  S
C3429      C3430   1.416       .  A
C3430      C3431   1.506       .  S
C3431      H3435   1.111       .  S
C3431      H3436   1.110       .  S
C3431      H3437   1.106       .  S
C3434      H3438   1.110       .  S
C3434      H3439   1.107       .  S
C3434      H3440   1.110       .  S
C3441      C3442   1.410       .  A
C3441      C3446   1.408       .  A
C3441      H3448   1.083       .  S
C3442      C3443   1.424       .  A
C3443      C3444   1.407       .  A
C3443      C3450   1.506       .  S
C3444      C3445   1.400       .  A
C3444      H3449   1.084       .  S
C3445      C3446   1.411       .  A
C3446      C3447   1.506       .  S
C3447      H3451   1.111       .  S
C3447      H3452   1.110       .  S
C3447      H3453   1.110       .  S
C3450      H3454   1.109       .  S
C3450      H3455   1.109       .  S
C3450      H3456   1.111       .  S
C3457      C3458   1.413       .  A
C3457      C3462   1.404       .  A
C3457      H3464   1.083       .  S
C3458      C3459   1.425       .  A
C3459      C3460   1.410       .  A
C3459      C3466   1.507       .  S
C3460      C3461   1.401       .  A
C3460      H3465   1.084       .  S
C3461      C3462   1.408       .  A
C3462      C3463   1.507       .  S
C3463      H3467   1.111       .  S
C3463      H3468   1.110       .  S
C3463      H3469   1.110       .  S
C3466      H3470   1.110       .  S
C3466      H3471   1.109       .  S
C3466      H3472   1.111       .  S
C3473      C3474   1.400       .  A
C3473      C3478   1.405       .  A
C3473      H3480   1.084       .  S
C3474      C3475   1.415       .  A
C3475      C3476   1.409       .  A
C3475      C3482   1.507       .  S
C3476      C3477   1.408       .  A
C3476      H3481   1.084       .  S
C3477      C3478   1.423       .  A
C3478      C3479   1.508       .  S
C3479      H3483   1.111       .  S
C3479      H3484   1.110       .  S
C3479      H3485   1.109       .  S
C3482      H3486   1.108       .  S
C3482      H3487   1.110       .  S
C3482      H3488   1.110       .  S
C3489      C3490   1.413       .  A
C3489      C3494   1.409       .  A
C3489      H3496   1.083       .  S
C3490      C3491   1.427       .  A
C3491      C3492   1.407       .  A
C3491      C3498   1.504       .  S
C3492      C3493   1.397       .  A
C3492      H3497   1.084       .  S
C3493      C3494   1.409       .  A
C3494      C3495   1.506       .  S
C3495      H3499   1.111       .  S
C3495      H3500   1.110       .  S
C3495      H3501   1.110       .  S
C3498      H3502   1.108       .  S
C3498      H3503   1.109       .  S
C3498      H3504   1.111       .  S
C3505      C3506   1.407       .  A
C3505      C3510   1.404       .  A
C3505      H3512   1.082       .  S
C3506      C3507   1.419       .  A
C3507      C3508   1.407       .  A
C3507      C3514   1.504       .  S
C3508      C3509   1.403       .  A
C3508      H3513   1.084       .  S
C3509      C3510   1.414       .  A
C3510      C3511   1.509       .  S
C3511      H3515   1.111       .  S
C3511      H3516   1.108       .  S
C3511      H3517   1.110       .  S
C3514      H3518   1.110       .  S
C3514      H3519   1.105       .  S
C3514      H3520   1.111       .  S
C3521      C3522   1.407       .  A
C3521      C3526   1.407       .  A
C3521      H3528   1.084       .  S
C3522      C3523   1.420       .  A
C3523      C3524   1.408       .  A
C3523      C3530   1.507       .  S
C3524      C3525   1.402       .  A
C3524      H3529   1.084       .  S
C3525      C3526   1.414       .  A
C3526      C3527   1.508       .  S
C3527      H3531   1.111       .  S
C3527      H3532   1.110       .  S
C3527      H3533   1.109       .  S
C3530      H3534   1.110       .  S
C3530      H3535   1.107       .  S
C3530      H3536   1.111       .  S
C3537      C3538   1.398       .  A
C3537      C3542   1.407       .  A
C3537      H3544   1.084       .  S
C3538      C3539   1.408       .  A
C3539      C3540   1.407       .  A
C3539      C3546   1.506       .  S
C3540      C3541   1.413       .  A
C3540      H3545   1.083       .  S
C3541      C3542   1.428       .  A
C3542      C3543   1.508       .  S
C3543      H3547   1.111       .  S
C3543      H3548   1.110       .  S
C3543      H3549   1.110       .  S
C3546      H3550   1.110       .  S
C3546      H3551   1.110       .  S
C3546      H3552   1.111       .  S
C3553      C3554   1.409       .  A
C3553      C3558   1.407       .  A
C3553      H3560   1.084       .  S
C3554      C3555   1.420       .  A
C3555      C3556   1.407       .  A
C3555      C3562   1.508       .  S
C3556      C3557   1.404       .  A
C3556      H3561   1.084       .  S
C3557      C3558   1.416       .  A
C3558      C3559   1.507       .  S
C3559      H3563   1.110       .  S
C3559      H3564   1.111       .  S
C3559      H3565   1.107       .  S
C3562      H3566   1.110       .  S
C3562      H3567   1.107       .  S
C3562      H3568   1.111       .  S
C3569      C3570   1.399       .  A
C3569      C3574   1.399       .  A
C3569      H3576   1.084       .  S
C3570      C3571   1.416       .  A
C3571      C3572   1.401       .  A
C3571      C3578   1.508       .  S
C3572      C3573   1.399       .  A
C3572      H3577   1.085       .  S
C3573      C3574   1.415       .  A
C3574      C3575   1.510       .  S
C3575      H3579   1.111       .  S
C3575      H3580   1.110       .  S
C3575      H3581   1.109       .  S
C3578      H3582   1.108       .  S
C3578      H3583   1.110       .  S
C3578      H3584   1.110       .  S
C3585      C3586   1.399       .  A
C3585      C3590   1.399       .  A
C3585      H3592   1.084       .  S
C3586      C3587   1.414       .  A
C3587      C3588   1.402       .  A
C3587      C3594   1.507       .  S
C3588      C3589   1.400       .  A
C3588      H3593   1.084       .  S
C3589      C3590   1.416       .  A
C3590      C3591   1.509       .  S
C3591      H3595   1.111       .  S
C3591      H3596   1.109       .  S
C3591      H3597   1.111       .  S
C3594      H3598   1.109       .  S
C3594      H3599   1.110       .  S
C3594      H3600   1.111       .  S
C3601      C3602   1.398       .  A
C3601      C3606   1.400       .  A
C3601      H3608   1.084       .  S
C3602      C3603   1.415       .  A
C3603      C3604   1.403       .  A
C3603      C3610   1.508       .  S
C3604      C3605   1.399       .  A
C3604      H3609   1.084       .  S
C3605      C3606   1.413       .  A
C3606      C3607   1.508       .  S
C3607      H3611   1.111   1_554  S
C3607      H3612   1.110   1_554  S
C3607      H3613   1.108   1_554  S
C3610      H3614   1.110       .  S
C3610      H3615   1.110       .  S
C3610      H3616   1.111       .  S
C3617      C3618   1.399       .  A
C3617      C3622   1.405       .  A
C3617      H3624   1.084       .  S
C3618      C3619   1.407       .  A
C3619      C3620   1.402       .  A
C3619      C3626   1.507       .  S
C3620      C3621   1.410       .  A
C3620      H3625   1.083       .  S
C3621      C3622   1.423       .  A
C3622      C3623   1.509       .  S
C3623      H3627   1.111       .  S
C3623      H3628   1.110       .  S
C3623      H3629   1.110       .  S
C3626      H3630   1.110       .  S
C3626      H3631   1.110       .  S
C3626      H3632   1.111       .  S
C3633      C3634   1.396       .  A
C3633      C3638   1.400       .  A
C3633      H3640   1.084       .  S
C3634      C3635   1.409       .  A
C3635      C3636   1.403       .  A
C3635      C3642   1.507       .  S
C3636      C3637   1.409       .  A
C3636      H3641   1.084       .  S
C3637      C3638   1.425       .  A
C3638      C3639   1.510       .  S
C3639      H3643   1.111       .  S
C3639      H3644   1.111       .  S
C3639      H3645   1.110       .  S
C3642      H3646   1.111       .  S
C3642      H3647   1.110       .  S
C3642      H3648   1.111       .  S
C3649      C3650   1.406       .  A
C3649      C3654   1.397       .  A
C3649      H3656   1.084       .  S
C3650      C3651   1.424       .  A
C3651      C3652   1.398       .  A
C3651      C3658   1.510       .  S
C3652      C3653   1.395       .  A
C3652      H3657   1.085       .  S
C3653      C3654   1.410       .  A
C3654      C3655   1.508       .  S
C3655      H3659   1.110       .  S
C3655      H3660   1.110       .  S
C3655      H3661   1.108       .  S
C3658      H3662   1.109       .  S
C3658      H3663   1.110       .  S
C3658      H3664   1.111       .  S
C3665      C3666   1.412       .  A
C3665      C3670   1.397       .  A
C3665      H3672   1.083       .  S
C3666      C3667   1.423       .  A
C3667      C3668   1.402       .  A
C3667      C3674   1.509       .  S
C3668      C3669   1.398       .  A
C3668      H3673   1.084       .  S
C3669      C3670   1.404       .  A
C3670      C3671   1.507       .  S
C3671      H3675   1.111       .  S
C3671      H3676   1.110       .  S
C3671      H3677   1.110       .  S
C3674      H3678   1.110       .  S
C3674      H3679   1.110       .  S
C3674      H3680   1.111       .  S
C3681      C3682   1.398       .  A
C3681      C3686   1.402       .  A
C3681      H3688   1.084       .  S
C3682      C3683   1.407       .  A
C3683      C3684   1.399       .  A
C3683      C3690   1.508       .  S
C3684      C3685   1.410       .  A
C3684      H3689   1.084       .  S
C3685      C3686   1.423       .  A
C3686      C3687   1.509       .  S
C3687      H3691   1.111       .  S
C3687      H3692   1.110       .  S
C3687      H3693   1.109       .  S
C3690      H3694   1.110       .  S
C3690      H3695   1.110       .  S
C3690      H3696   1.111       .  S
C3697      C3698   1.400       .  A
C3697      C3702   1.403       .  A
C3697      H3704   1.084       .  S
C3698      C3699   1.413       .  A
C3699      C3700   1.403       .  A
C3699      C3706   1.507       .  S
C3700      C3701   1.401       .  A
C3700      H3705   1.084       .  S
C3701      C3702   1.414       .  A
C3702      C3703   1.506       .  S
C3703      H3707   1.111       .  S
C3703      H3708   1.110       .  S
C3703      H3709   1.110       .  S
C3706      H3710   1.109       .  S
C3706      H3711   1.110       .  S
C3706      H3712   1.111       .  S
C3713      C3714   1.406       .  A
C3713      C3718   1.409       .  A
C3713      H3720   1.084       .  S
C3714      C3715   1.410       .  A
C3715      C3716   1.403       .  A
C3715      C3722   1.507       .  S
C3716      C3717   1.405       .  A
C3716      H3721   1.084       .  S
C3717      C3718   1.410       .  A
C3718      C3719   1.505       .  S
C3719      H3723   1.111       .  S
C3719      H3724   1.110       .  S
C3719      H3725   1.110       .  S
C3722      H3726   1.110       .  S
C3722      H3727   1.110       .  S
C3722      H3728   1.111       .  S
C3729      C3730   1.415       .  A
C3729      C3734   1.407       .  A
C3729      H3736   1.083       .  S
C3730      C3731   1.427       .  A
C3731      C3732   1.408       .  A
C3731      C3738   1.505       .  S
C3732      C3733   1.399       .  A
C3732      H3737   1.084       .  S
C3733      C3734   1.407       .  A
C3734      C3735   1.506       .  S
C3735      H3739   1.111       .  S
C3735      H3740   1.110       .  S
C3735      H3741   1.110       .  S
C3738      H3742   1.107       .  S
C3738      H3743   1.110       .  S
C3738      H3744   1.111       .  S
C3745      C3746   1.401       .  A
C3745      C3750   1.408       .  A
C3745      H3752   1.084       .  S
C3746      C3747   1.408       .  A
C3747      C3748   1.402       .  A
C3747      C3754   1.507       .  S
C3748      C3749   1.411       .  A
C3748      H3753   1.083       .  S
C3749      C3750   1.423       .  A
C3750      C3751   1.507       .  S
C3751      H3755   1.111       .  S
C3751      H3756   1.105       .  S
C3751      H3757   1.110       .  S
C3754      H3758   1.109       .  S
C3754      H3759   1.110       .  S
C3754      H3760   1.111       .  S
C3761      C3762   1.409       .  A
C3761      C3766   1.406       .  A
C3761      H3768   1.083       .  S
C3762      C3763   1.422       .  A
C3763      C3764   1.405       .  A
C3763      C3770   1.509       .  S
C3764      C3765   1.401       .  A
C3764      H3769   1.084       .  S
C3765      C3766   1.412       .  A
C3766      C3767   1.507       .  S
C3767      H3771   1.111       .  S
C3767      H3772   1.109       .  S
C3767      H3773   1.110       .  S
C3770      H3774   1.108       .  S
C3770      H3775   1.111       .  S
C3770      H3776   1.111       .  S
C3777      C3778   1.403       .  A
C3777      C3782   1.402       .  A
C3777      H3784   1.085       .  S
C3778      C3779   1.415       .  A
C3779      C3780   1.409       .  A
C3779      C3786   1.508       .  S
C3780      C3781   1.407       .  A
C3780      H3785   1.084       .  S
C3781      C3782   1.416       .  A
C3782      C3783   1.508       .  S
C3783      H3787   1.111       .  S
C3783      H3788   1.105       .  S
C3783      H3789   1.111       .  S
C3786      H3790   1.107       .  S
C3786      H3791   1.110       .  S
C3786      H3792   1.111       .  S
C3793      C3794   1.401       .  A
C3793      C3798   1.402       .  A
C3793      H3800   1.084       .  S
C3794      C3795   1.411       .  A
C3795      C3796   1.401       .  A
C3795      C3802   1.506       .  S
C3796      C3797   1.400       .  A
C3796      H3801   1.084       .  S
C3797      C3798   1.414       .  A
C3798      C3799   1.508       .  S
C3799      H3803   1.111       .  S
C3799      H3804   1.110       .  S
C3799      H3805   1.111       .  S
C3802      H3806   1.110       .  S
C3802      H3807   1.110       .  S
C3802      H3808   1.111       .  S
C3809      C3810   1.401       .  A
C3809      C3814   1.408       .  A
C3809      H3816   1.084       .  S
C3810      C3811   1.411       .  A
C3811      C3812   1.404       .  A
C3811      C3818   1.507       .  S
C3812      C3813   1.411       .  A
C3812      H3817   1.084       .  S
C3813      C3814   1.424       .  A
C3814      C3815   1.508       .  S
C3815      H3819   1.111       .  S
C3815      H3820   1.109       .  S
C3815      H3821   1.111       .  S
C3818      H3822   1.108       .  S
C3818      H3823   1.111       .  S
C3818      H3824   1.110       .  S
C3825      C3826   1.409       .  A
C3825      C3830   1.406       .  A
C3825      H3832   1.083       .  S
C3826      C3827   1.425       .  A
C3827      C3828   1.409       .  A
C3827      C3834   1.509       .  S
C3828      C3829   1.402       .  A
C3828      H3833   1.084       .  S
C3829      C3830   1.412       .  A
C3830      C3831   1.507       .  S
C3831      H3835   1.111       .  S
C3831      H3836   1.110       .  S
C3831      H3837   1.109       .  S
C3834      H3838   1.111       .  S
C3834      H3839   1.109       .  S
C3834      H3840   1.111       .  S
C3841      C3842   1.408       .  A
C3841      C3846   1.403       .  A
C3841      H3848   1.084       .  S
C3842      C3843   1.421       .  A
C3843      C3844   1.404       .  A
C3843      C3850   1.508       .  S
C3844      C3845   1.401       .  A
C3844      H3849   1.085       .  S
C3845      C3846   1.410       .  A
C3846      C3847   1.507       .  S
C3847      H3851   1.111       .  S
C3847      H3852   1.110       .  S
C3847      H3853   1.110       .  S
C3850      H3854   1.106   1_565  S
C3850      H3855   1.110       .  S
C3850      H3856   1.111       .  S
C3857      C3858   1.401       .  A
C3857      C3862   1.408       .  A
C3857      H3864   1.084       .  S
C3858      C3859   1.412       .  A
C3859      C3860   1.407       .  A
C3859      C3866   1.507       .  S
C3860      C3861   1.409       .  A
C3860      H3865   1.083       .  S
C3861      C3862   1.425       .  A
C3862      C3863   1.508       .  S
C3863      H3867   1.111       .  S
C3863      H3868   1.111   1_545  S
C3863      H3869   1.108       .  S
C3866      H3870   1.110       .  S
C3866      H3871   1.109       .  S
C3866      H3872   1.111       .  S
C3873      C3874   1.403       .  A
C3873      C3878   1.407       .  A
C3873      H3880   1.084       .  S
C3874      C3875   1.416       .  A
C3875      C3876   1.408       .  A
C3875      C3882   1.508       .  S
C3876      C3877   1.407       .  A
C3876      H3881   1.084       .  S
C3877      C3878   1.419       .  A
C3878      C3879   1.505       .  S
C3879      H3883   1.111       .  S
C3879      H3884   1.110       .  S
C3879      H3885   1.106       .  S
C3882      H3886   1.108       .  S
C3882      H3887   1.110       .  S
C3882      H3888   1.111       .  S
C3889      C3890   1.403       .  A
C3889      C3894   1.405       .  A
C3889      H3896   1.085       .  S
C3890      C3891   1.415       .  A
C3891      C3892   1.408       .  A
C3891      C3898   1.507       .  S
C3892      C3893   1.406       .  A
C3892      H3897   1.084       .  S
C3893      C3894   1.419       .  A
C3894      C3895   1.505       .  S
C3895      H3899   1.111       .  S
C3895      H3900   1.106       .  S
C3895      H3901   1.110       .  S
C3898      H3902   1.110       .  S
C3898      H3903   1.108       .  S
C3898      H3904   1.111       .  S
C3905      C3906   1.411       .  A
C3905      C3910   1.409       .  A
C3905      H3912   1.084       .  S
C3906      C3907   1.423       .  A
C3907      C3908   1.406       .  A
C3907      C3914   1.507       .  S
C3908      C3909   1.401       .  A
C3908      H3913   1.084       .  S
C3909      C3910   1.413       .  A
C3910      C3911   1.507       .  S
C3911      H3915   1.110       .  S
C3911      H3916   1.108       .  S
C3911      H3917   1.110       .  S
C3914      H3918   1.110       .  S
C3914      H3919   1.109       .  S
C3914      H3920   1.111       .  S
C3921      C3922   1.410       .  A
C3921      C3926   1.406       .  A
C3921      H3928   1.081       .  S
C3922      C3923   1.425       .  A
C3923      C3924   1.410       .  A
C3923      C3930   1.504       .  S
C3924      C3925   1.400       .  A
C3924      H3929   1.084       .  S
C3925      C3926   1.410       .  A
C3926      C3927   1.507       .  S
C3927      H3931   1.111       .  S
C3927      H3932   1.109       .  S
C3927      H3933   1.110       .  S
C3930      H3934   1.109       .  S
C3930      H3935   1.109       .  S
C3930      H3936   1.111       .  S
C3937      C3938   1.411       .  A
C3937      C3942   1.402       .  A
C3937      H3944   1.084       .  S
C3938      C3939   1.418       .  A
C3939      C3940   1.406       .  A
C3939      C3946   1.508       .  S
C3940      C3941   1.405       .  A
C3940      H3945   1.084       .  S
C3941      C3942   1.410       .  A
C3942      C3943   1.507       .  S
C3943      H3947   1.110       .  S
C3943      H3948   1.107       .  S
C3943      H3949   1.110       .  S
C3946      H3950   1.109       .  S
C3946      H3951   1.110       .  S
C3946      H3952   1.111       .  S
C3953      C3954   1.409       .  A
C3953      C3958   1.402       .  A
C3953      H3960   1.084       .  S
C3954      C3955   1.422       .  A
C3955      C3956   1.406       .  A
C3955      C3962   1.508       .  S
C3956      C3957   1.401       .  A
C3956      H3961   1.084       .  S
C3957      C3958   1.410       .  A
C3958      C3959   1.508       .  S
C3959      H3963   1.110       .  S
C3959      H3964   1.108       .  S
C3959      H3965   1.110       .  S
C3962      H3966   1.110       .  S
C3962      H3967   1.109       .  S
C3962      H3968   1.111       .  S
C3969      C3970   1.410       .  A
C3969      C3974   1.407       .  A
C3969      H3976   1.084       .  S
C3970      C3971   1.427       .  A
C3971      C3972   1.402       .  A
C3971      C3978   1.510       .  S
C3972      C3973   1.396       .  A
C3972      H3977   1.085       .  S
C3973      C3974   1.409       .  A
C3974      C3975   1.506       .  S
C3975      H3979   1.111       .  S
C3975      H3980   1.111       .  S
C3975      H3981   1.110       .  S
C3978      H3982   1.111       .  S
C3978      H3983   1.110       .  S
C3978      H3984   1.111       .  S
C3985      C3986   1.403       .  A
C3985      C3990   1.402       .  A
C3985      H3992   1.085       .  S
C3986      C3987   1.411       .  A
C3987      C3988   1.406       .  A
C3987      C3994   1.506       .  S
C3988      C3989   1.403       .  A
C3988      H3993   1.084       .  S
C3989      C3990   1.411       .  A
C3990      C3991   1.507       .  S
C3991      H3995   1.110       .  S
C3991      H3996   1.110       .  S
C3991      H3997   1.110       .  S
C3994      H3998   1.110       .  S
C3994      H3999   1.110       .  S
C3994      H4000   1.111       .  S
C4001      C4002   1.406       .  A
C4001      C4006   1.407       .  A
C4001      H4008   1.084       .  S
C4002      C4003   1.409       .  A
C4003      C4004   1.402       .  A
C4003      C4010   1.506       .  S
C4004      C4005   1.405       .  A
C4004      H4009   1.085       .  S
C4005      C4006   1.410       .  A
C4006      C4007   1.505       .  S
C4007      H4011   1.111       .  S
C4007      H4012   1.110       .  S
C4007      H4013   1.110       .  S
C4010      H4014   1.110       .  S
C4010      H4015   1.110       .  S
C4010      H4016   1.111       .  S
C4017      C4018   1.404       .  A
C4017      C4022   1.406       .  A
C4017      H4024   1.084       .  S
C4018      C4019   1.409       .  A
C4019      C4020   1.398       .  A
C4019      C4026   1.508       .  S
C4020      C4021   1.402       .  A
C4020      H4025   1.085       .  S
C4021      C4022   1.411       .  A
C4022      C4023   1.506       .  S
C4023      H4027   1.111       .  S
C4023      H4028   1.110       .  S
C4023      H4029   1.109       .  S
C4026      H4030   1.110       .  S
C4026      H4031   1.110       .  S
C4026      H4032   1.111       .  S
C4033      C4034   1.395       .  A
C4033      C4038   1.397       .  A
C4033      H4040   1.085       .  S
C4034      C4035   1.406       .  A
C4035      C4036   1.402       .  A
C4035      C4042   1.506       .  S
C4036      C4037   1.411       .  A
C4036      H4041   1.083       .  S
C4037      C4038   1.426       .  A
C4038      C4039   1.511       .  S
C4039      H4043   1.111       .  S
C4039      H4044   1.110       .  S
C4039      H4045   1.110       .  S
C4042      H4046   1.110       .  S
C4042      H4047   1.110       .  S
C4042      H4048   1.111       .  S
C4049      C4050   1.404       .  A
C4049      C4054   1.405       .  A
C4049      H4056   1.084       .  S
C4050      C4051   1.408       .  A
C4051      C4052   1.398       .  A
C4051      C4058   1.508       .  S
C4052      C4053   1.404       .  A
C4052      H4057   1.083       .  S
C4053      C4054   1.410       .  A
C4054      C4055   1.506       .  S
C4055      H4059   1.111       .  S
C4055      H4060   1.111       .  S
C4055      H4061   1.110       .  S
C4058      H4062   1.110       .  S
C4058      H4063   1.110       .  S
C4058      H4064   1.111       .  S
C4065      C4066   1.396       .  A
C4065      C4070   1.398       .  A
C4065      H4072   1.084       .  S
C4066      C4067   1.411       .  A
C4067      C4068   1.399       .  A
C4067      C4074   1.507       .  S
C4068      C4069   1.403       .  A
C4068      H4073   1.084       .  S
C4069      C4070   1.422       .  A
C4070      C4071   1.510       .  S
C4071      H4075   1.111       .  S
C4071      H4076   1.110       .  S
C4071      H4077   1.109       .  S
C4074      H4078   1.109       .  S
C4074      H4079   1.110       .  S
C4074      H4080   1.111       .  S
C4081      C4082   1.398       .  A
C4081      C4086   1.410       .  A
C4081      H4088   1.084       .  S
C4082      C4083   1.417       .  A
C4083      C4084   1.403       .  A
C4083      C4090   1.511       .  S
C4084      C4085   1.408       .  A
C4084      H4089   1.081       .  S
C4085      C4086   1.434       .  A
C4086      C4087   1.508       .  S
C4087      H4091   1.111       .  S
C4087      H4092   1.107       .  S
C4087      H4093   1.110       .  S
C4090      H4094   1.111   1_455  S
C4090      H4095   1.108       .  S
C4090      H4096   1.111       .  S
C4097      C4098   1.406       .  A
C4097      C4102   1.402       .  A
C4097      H4104   1.085       .  S
C4098      C4099   1.412       .  A
C4099      C4100   1.410       .  A
C4099      C4106   1.505       .  S
C4100      C4101   1.408       .  A
C4100      H4105   1.084       .  S
C4101      C4102   1.414       .  A
C4102      C4103   1.508       .  S
C4103      H4107   1.110       .  S
C4103      H4108   1.111       .  S
C4103      H4109   1.107       .  S
C4106      H4110   1.111       .  S
C4106      H4111   1.110       .  S
C4106      H4112   1.111       .  S
C4113      C4114   1.403       .  A
C4113      C4118   1.410       .  A
C4113      H4120   1.084       .  S
C4114      C4115   1.419       .  A
C4115      C4116   1.404       .  A
C4115      C4122   1.509       .  S
C4116      C4117   1.400       .  A
C4116      H4121   1.084       .  S
C4117      C4118   1.415       .  A
C4118      C4119   1.506       .  S
C4119      H4123   1.111       .  S
C4119      H4124   1.110       .  S
C4119      H4125   1.109       .  S
C4122      H4126   1.108       .  S
C4122      H4127   1.110       .  S
C4122      H4128   1.111       .  S
C4129      C4130   1.413       .  A
C4129      C4134   1.398       .  A
C4129      H4136   1.083       .  S
C4130      C4131   1.420       .  A
C4131      C4132   1.401       .  A
C4131      C4138   1.508       .  S
C4132      C4133   1.399       .  A
C4132      H4137   1.084       .  S
C4133      C4134   1.404       .  A
C4134      C4135   1.507       .  S
C4135      H4139   1.111       .  S
C4135      H4140   1.110       .  S
C4135      H4141   1.110       .  S
C4138      H4142   1.110       .  S
C4138      H4143   1.110       .  S
C4138      H4144   1.111       .  S
C4145      C4146   1.412       .  A
C4145      C4150   1.399       .  A
C4145      H4152   1.083       .  S
C4146      C4147   1.416       .  A
C4147      C4148   1.399       .  A
C4147      C4154   1.509       .  S
C4148      C4149   1.402       .  A
C4148      H4153   1.085       .  S
C4149      C4150   1.404       .  A
C4150      C4151   1.507       .  S
C4151      H4155   1.111       .  S
C4151      H4156   1.110       .  S
C4151      H4157   1.109       .  S
C4154      H4158   1.110       .  S
C4154      H4159   1.108       .  S
C4154      H4160   1.111       .  S
C4161      C4162   1.410       .  A
C4161      C4166   1.401       .  A
C4161      H4168   1.083       .  S
C4162      C4163   1.422       .  A
C4163      C4164   1.404       .  A
C4163      C4170   1.509       .  S
C4164      C4165   1.401       .  A
C4164      H4169   1.084       .  S
C4165      C4166   1.407       .  A
C4166      C4167   1.507       .  S
C4167      H4171   1.111       .  S
C4167      H4172   1.109       .  S
C4167      H4173   1.110       .  S
C4170      H4174   1.109       .  S
C4170      H4175   1.110       .  S
C4170      H4176   1.111       .  S
C4177      C4178   1.404       .  A
C4177      C4182   1.396       .  A
C4177      H4184   1.085       .  S
C4178      C4179   1.411       .  A
C4179      C4180   1.404       .  A
C4179      C4186   1.506       .  S
C4180      C4181   1.404       .  A
C4180      H4185   1.084       .  S
C4181      C4182   1.411       .  A
C4182      C4183   1.509       .  S
C4183      H4187   1.111       .  S
C4183      H4188   1.108       .  S
C4183      H4189   1.110       .  S
C4186      H4190   1.110       .  S
C4186      H4191   1.110       .  S
C4186      H4192   1.111       .  S
C4193      C4194   1.401       .  A
C4193      C4198   1.401       .  A
C4193      H4200   1.084       .  S
C4194      C4195   1.414       .  A
C4195      C4196   1.398       .  A
C4195      C4202   1.508       .  S
C4196      C4197   1.399       .  A
C4196      H4201   1.084       .  S
C4197      C4198   1.411       .  A
C4198      C4199   1.506       .  S
C4199      H4203   1.111       .  S
C4199      H4204   1.110       .  S
C4199      H4205   1.110       .  S
C4202      H4206   1.110       .  S
C4202      H4207   1.109       .  S
C4202      H4208   1.110       .  S
C4209      C4210   1.399       .  A
C4209      C4214   1.399       .  A
C4209      H4216   1.085       .  S
C4210      C4211   1.414       .  A
C4211      C4212   1.399       .  A
C4211      C4218   1.509       .  S
C4212      C4213   1.399       .  A
C4212      H4217   1.084       .  S
C4213      C4214   1.412       .  A
C4214      C4215   1.508       .  S
C4215      H4219   1.111       .  S
C4215      H4220   1.111       .  S
C4215      H4221   1.109       .  S
C4218      H4222   1.110       .  S
C4218      H4223   1.110       .  S
C4218      H4224   1.111       .  S
C4225      C4226   1.399       .  A
C4225      C4230   1.403       .  A
C4225      H4232   1.084       .  S
C4226      C4227   1.411       .  A
C4227      C4228   1.403       .  A
C4227      C4234   1.508       .  S
C4228      C4229   1.410       .  A
C4228      H4233   1.084       .  S
C4229      C4230   1.425       .  A
C4230      C4231   1.510       .  S
C4231      H4235   1.111       .  S
C4231      H4236   1.110       .  S
C4231      H4237   1.110       .  S
C4234      H4238   1.108       .  S
C4234      H4239   1.110       .  S
C4234      H4240   1.110       .  S
C4241      C4242   1.410       .  A
C4241      C4246   1.398       .  A
C4241      H4248   1.084       .  S
C4242      C4243   1.419       .  A
C4243      C4244   1.404       .  A
C4243      C4250   1.508       .  S
C4244      C4245   1.401       .  A
C4244      H4249   1.084       .  S
C4245      C4246   1.409       .  A
C4246      C4247   1.508       .  S
C4247      H4251   1.110       .  S
C4247      H4252   1.111       .  S
C4247      H4253   1.108       .  S
C4250      H4254   1.109       .  S
C4250      H4255   1.110       .  S
C4250      H4256   1.111       .  S
C4257      C4258   1.407       .  A
C4257      C4262   1.404       .  A
C4257      H4264   1.084       .  S
C4258      C4259   1.426       .  A
C4259      C4260   1.401       .  A
C4259      C4266   1.511       .  S
C4260      C4261   1.396       .  A
C4260      H4265   1.084       .  S
C4261      C4262   1.411       .  A
C4262      C4263   1.506       .  S
C4263      H4267   1.111       .  S
C4263      H4268   1.110       .  S
C4263      H4269   1.110       .  S
C4266      H4270   1.110       .  S
C4266      H4271   1.110       .  S
C4266      H4272   1.111       .  S
C4273      C4274   1.409       .  A
C4273      C4278   1.400       .  A
C4273      H4280   1.084       .  S
C4274      C4275   1.416       .  A
C4275      C4276   1.403       .  A
C4275      C4282   1.507       .  S
C4276      C4277   1.402       .  A
C4276      H4281   1.084       .  S
C4277      C4278   1.407       .  A
C4278      C4279   1.507       .  S
C4279      H4283   1.111       .  S
C4279      H4284   1.110       .  S
C4279      H4285   1.110       .  S
C4282      H4286   1.110       .  S
C4282      H4287   1.109       .  S
C4282      H4288   1.111       .  S
C4289      C4290   1.403       .  A
C4289      C4294   1.400       .  A
C4289      H4296   1.084       .  S
C4290      C4291   1.423       .  A
C4291      C4292   1.401       .  A
C4291      C4298   1.509       .  S
C4292      C4293   1.397       .  A
C4292      H4297   1.084       .  S
C4293      C4294   1.413       .  A
C4294      C4295   1.508       .  S
C4295      H4299   1.111       .  S
C4295      H4300   1.110       .  S
C4295      H4301   1.109       .  S
C4298      H4302   1.109       .  S
C4298      H4303   1.110       .  S
C4298      H4304   1.111       .  S
C4305      C4306   1.403       .  A
C4305      C4310   1.399       .  A
C4305      H4312   1.085       .  S
C4306      C4307   1.411       .  A
C4307      C4308   1.409       .  A
C4307      C4314   1.506       .  S
C4308      C4309   1.407       .  A
C4308      H4313   1.084       .  S
C4309      C4310   1.410       .  A
C4310      C4311   1.507       .  S
C4311      H4315   1.110       .  S
C4311      H4316   1.110       .  S
C4311      H4317   1.110       .  S
C4314      H4318   1.110       .  S
C4314      H4319   1.111       .  S
C4314      H4320   1.111       .  S
C4321      C4322   1.403       .  A
C4321      C4326   1.403       .  A
C4321      H4328   1.084       .  S
C4322      C4323   1.413       .  A
C4323      C4324   1.407       .  A
C4323      C4330   1.507       .  S
C4324      C4325   1.404       .  A
C4324      H4329   1.084       .  S
C4325      C4326   1.411       .  A
C4326      C4327   1.507       .  S
C4327      H4331   1.111       .  S
C4327      H4332   1.110       .  S
C4327      H4333   1.110       .  S
C4330      H4334   1.111       .  S
C4330      H4335   1.110       .  S
C4330      H4336   1.111       .  S
C4337      C4338   1.397       .  A
C4337      C4342   1.402       .  A
C4337      H4344   1.084       .  S
C4338      C4339   1.409       .  A
C4339      C4340   1.399       .  A
C4339      C4346   1.508       .  S
C4340      C4341   1.407       .  A
C4340      H4345   1.084       .  S
C4341      C4342   1.426       .  A
C4342      C4343   1.510       .  S
C4343      H4347   1.111       .  S
C4343      H4348   1.110       .  S
C4343      H4349   1.110       .  S
C4346      H4350   1.109       .  S
C4346      H4351   1.110       .  S
C4346      H4352   1.111       .  S
C4353      C4354   1.411       .  A
C4353      C4358   1.397       .  A
C4353      H4360   1.084       .  S
C4354      C4355   1.420       .  A
C4355      C4356   1.403       .  A
C4355      C4362   1.508       .  S
C4356      C4357   1.401       .  A
C4356      H4361   1.084       .  S
C4357      C4358   1.405       .  A
C4358      C4359   1.508       .  S
C4359      H4363   1.111       .  S
C4359      H4364   1.109       .  S
C4359      H4365   1.110       .  S
C4362      H4366   1.109       .  S
C4362      H4367   1.110       .  S
C4362      H4368   1.111       .  S
C4369      C4370   1.404       .  A
C4369      C4374   1.405       .  A
C4369      H4376   1.084       .  S
C4370      C4371   1.410       .  A
C4371      C4372   1.401       .  A
C4371      C4378   1.506       .  S
C4372      C4373   1.404       .  A
C4372      H4377   1.085       .  S
C4373      C4374   1.410       .  A
C4374      C4375   1.506       .  S
C4375      H4379   1.111       .  S
C4375      H4380   1.110       .  S
C4375      H4381   1.110       .  S
C4378      H4382   1.110       .  S
C4378      H4383   1.109       .  S
C4378      H4384   1.111       .  S
C4385      C4386   1.408       .  A
C4385      C4390   1.403       .  A
C4385      H4392   1.084       .  S
C4386      C4387   1.426       .  A
C4387      C4388   1.399       .  A
C4387      C4394   1.511       .  S
C4388      C4389   1.395       .  A
C4388      H4393   1.085       .  S
C4389      C4390   1.408       .  A
C4390      C4391   1.506       .  S
C4391      H4395   1.111       .  S
C4391      H4396   1.110       .  S
C4391      H4397   1.110       .  S
C4394      H4398   1.110       .  S
C4394      H4399   1.110       .  S
C4394      H4400   1.111       .  S
C4401      C4402   1.404       .  A
C4401      C4406   1.401       .  A
C4401      H4408   1.085       .  S
C4402      C4403   1.410       .  A
C4403      C4404   1.405       .  A
C4403      C4410   1.506       .  S
C4404      C4405   1.406       .  A
C4404      H4409   1.084       .  S
C4405      C4406   1.410       .  A
C4406      C4407   1.507       .  S
C4407      H4411   1.111       .  S
C4407      H4412   1.110       .  S
C4407      H4413   1.109       .  S
C4410      H4414   1.110       .  S
C4410      H4415   1.110       .  S
C4410      H4416   1.111       .  S
C4417      C4418   1.404       .  A
C4417      C4422   1.399       .  A
C4417      H4424   1.085       .  S
C4418      C4419   1.409       .  A
C4419      C4420   1.404       .  A
C4419      C4426   1.506       .  S
C4420      C4421   1.404       .  A
C4420      H4425   1.084       .  S
C4421      C4422   1.412       .  A
C4422      C4423   1.508       .  S
C4423      H4427   1.110       .  S
C4423      H4428   1.108       .  S
C4423      H4429   1.111       .  S
C4426      H4430   1.110       .  S
C4426      H4431   1.110       .  S
C4426      H4432   1.111       .  S
C4433      C4434   1.410       .  A
C4433      C4438   1.400       .  A
C4433      H4440   1.084       .  S
C4434      C4435   1.425       .  A
C4435      C4436   1.404       .  A
C4435      C4442   1.509       .  S
C4436      C4437   1.399       .  A
C4436      H4441   1.084       .  S
C4437      C4438   1.409       .  A
C4438      C4439   1.508       .  S
C4439      H4443   1.110       .  S
C4439      H4444   1.110       .  S
C4439      H4445   1.108       .  S
C4442      H4446   1.109       .  S
C4442      H4447   1.110       .  S
C4442      H4448   1.111       .  S
C4449      C4450   1.411       .  A
C4449      C4454   1.398       .  A
C4449      H4456   1.083       .  S
C4450      C4451   1.420       .  A
C4451      C4452   1.407       .  A
C4451      C4458   1.507       .  S
C4452      C4453   1.403       .  A
C4452      H4457   1.084       .  S
C4453      C4454   1.406       .  A
C4454      C4455   1.508       .  S
C4455      H4459   1.111       .  S
C4455      H4460   1.110       .  S
C4455      H4461   1.110       .  S
C4458      H4462   1.109       .  S
C4458      H4463   1.110       .  S
C4458      H4464   1.111       .  S
C4465      C4466   1.400       .  A
C4465      C4470   1.400       .  A
C4465      H4472   1.084       .  S
C4466      C4467   1.413       .  A
C4467      C4468   1.401       .  A
C4467      C4474   1.507       .  S
C4468      C4469   1.400       .  A
C4468      H4473   1.084       .  S
C4469      C4470   1.411       .  A
C4470      C4471   1.507       .  S
C4471      H4475   1.111       .  S
C4471      H4476   1.110       .  S
C4471      H4477   1.110       .  S
C4474      H4478   1.110       .  S
C4474      H4479   1.110       .  S
C4474      H4480   1.111       .  S
C4481      C4482   1.402       .  A
C4481      C4486   1.406       .  A
C4481      H4488   1.084       .  S
C4482      C4483   1.415       .  A
C4483      C4484   1.400       .  A
C4483      C4490   1.509       .  S
C4484      C4485   1.398       .  A
C4484      H4489   1.084       .  S
C4485      C4486   1.413       .  A
C4486      C4487   1.506       .  S
C4487      H4491   1.111       .  S
C4487      H4492   1.110       .  S
C4487      H4493   1.110       .  S
C4490      H4494   1.109       .  S
C4490      H4495   1.110       .  S
C4490      H4496   1.111       .  S
C4497      C4498   1.409       .  A
C4497      C4502   1.398       .  A
C4497      H4504   1.084       .  S
C4498      C4499   1.415       .  A
C4499      C4500   1.400       .  A
C4499      C4506   1.508       .  S
C4500      C4501   1.404       .  A
C4500      H4505   1.085       .  S
C4501      C4502   1.408       .  A
C4502      C4503   1.508       .  S
C4503      H4507   1.110       .  S
C4503      H4508   1.111       .  S
C4503      H4509   1.108       .  S
C4506      H4510   1.109       .  S
C4506      H4511   1.110       .  S
C4506      H4512   1.111       .  S
C4513      C4514   1.398       .  A
C4513      C4518   1.399       .  A
C4513      H4520   1.084       .  S
C4514      C4515   1.414       .  A
C4515      C4516   1.403       .  A
C4515      C4522   1.507       .  S
C4516      C4517   1.403       .  A
C4516      H4521   1.084       .  S
C4517      C4518   1.419       .  A
C4518      C4519   1.510       .  S
C4519      H4523   1.111       .  S
C4519      H4524   1.110       .  S
C4519      H4525   1.111       .  S
C4522      H4526   1.110       .  S
C4522      H4527   1.108       .  S
C4522      H4528   1.110       .  S
C4529      C4530   1.399       .  A
C4529      C4534   1.399       .  A
C4529      H4536   1.084       .  S
C4530      C4531   1.414       .  A
C4531      C4532   1.404       .  A
C4531      C4538   1.506       .  S
C4532      C4533   1.400       .  A
C4532      H4537   1.084       .  S
C4533      C4534   1.416       .  A
C4534      C4535   1.510       .  S
C4535      H4539   1.111       .  S
C4535      H4540   1.108       .  S
C4535      H4541   1.110       .  S
C4538      H4542   1.110       .  S
C4538      H4543   1.109       .  S
C4538      H4544   1.111       .  S
C4545      C4546   1.401       .  A
C4545      C4550   1.404       .  A
C4545      H4552   1.084       .  S
C4546      C4547   1.414       .  A
C4547      C4548   1.404       .  A
C4547      C4554   1.506       .  S
C4548      C4549   1.401       .  A
C4548      H4553   1.084       .  S
C4549      C4550   1.414       .  A
C4550      C4551   1.508       .  S
C4551      H4555   1.111       .  S
C4551      H4556   1.110       .  S
C4551      H4557   1.110       .  S
C4554      H4558   1.110       .  S
C4554      H4559   1.110       .  S
C4554      H4560   1.111       .  S
C4561      C4562   1.400       .  A
C4561      C4566   1.403       .  A
C4561      H4568   1.084       .  S
C4562      C4563   1.411       .  A
C4563      C4564   1.404       .  A
C4563      C4570   1.506       .  S
C4564      C4565   1.402       .  A
C4564      H4569   1.084       .  S
C4565      C4566   1.413       .  A
C4566      C4567   1.507       .  S
C4567      H4571   1.111       .  S
C4567      H4572   1.110       .  S
C4567      H4573   1.110       .  S
C4570      H4574   1.110       .  S
C4570      H4575   1.110       .  S
C4570      H4576   1.111       .  S
C4577      C4578   1.412       .  A
C4577      C4582   1.403       .  A
C4577      H4584   1.083       .  S
C4578      C4579   1.422       .  A
C4579      C4580   1.403       .  A
C4579      C4586   1.509       .  S
C4580      C4581   1.401       .  A
C4580      H4585   1.084       .  S
C4581      C4582   1.408       .  A
C4582      C4583   1.507       .  S
C4583      H4587   1.111       .  S
C4583      H4588   1.109       .  S
C4583      H4589   1.110       .  S
C4586      H4590   1.108       .  S
C4586      H4591   1.110       .  S
C4586      H4592   1.111       .  S
C4593      C4594   1.410       .  A
C4593      C4598   1.396       .  A
C4593      H4600   1.084       .  S
C4594      C4595   1.421       .  A
C4595      C4596   1.407       .  A
C4595      C4602   1.508       .  S
C4596      C4597   1.402       .  A
C4596      H4601   1.084       .  S
C4597      C4598   1.409       .  A
C4598      C4599   1.509       .  S
C4599      H4603   1.111       .  S
C4599      H4604   1.108       .  S
C4599      H4605   1.110       .  S
C4602      H4606   1.110       .  S
C4602      H4607   1.109       .  S
C4602      H4608   1.111       .  S
C4609      C4610   1.405       .  A
C4609      C4614   1.400       .  A
C4609      H4616   1.084       .  S
C4610      C4611   1.422       .  A
C4611      C4612   1.405       .  A
C4611      C4618   1.509       .  S
C4612      C4613   1.400       .  A
C4612      H4617   1.084       .  S
C4613      C4614   1.411       .  A
C4614      C4615   1.509       .  S
C4615      H4619   1.111       .  S
C4615      H4620   1.109       .  S
C4615      H4621   1.110       .  S
C4618      H4622   1.110       .  S
C4618      H4623   1.110       .  S
C4618      H4624   1.111       .  S
C4625      C4626   1.401       .  A
C4625      C4630   1.405       .  A
C4625      H4632   1.084       .  S
C4626      C4627   1.416       .  A
C4627      C4628   1.402       .  A
C4627      C4634   1.509       .  S
C4628      C4629   1.400       .  A
C4628      H4633   1.084       .  S
C4629      C4630   1.415       .  A
C4630      C4631   1.507       .  S
C4631      H4635   1.111       .  S
C4631      H4636   1.109       .  S
C4631      H4637   1.110       .  S
C4634      H4638   1.110       .  S
C4634      H4639   1.108       .  S
C4634      H4640   1.111       .  S
C4641      C4642   1.404       .  A
C4641      C4646   1.401       .  A
C4641      H4648   1.084       .  S
C4642      C4643   1.413       .  A
C4643      C4644   1.408       .  A
C4643      C4650   1.506       .  S
C4644      C4645   1.404       .  A
C4644      H4649   1.084       .  S
C4645      C4646   1.410       .  A
C4646      C4647   1.507       .  S
C4647      H4651   1.111       .  S
C4647      H4652   1.110       .  S
C4647      H4653   1.110       .  S
C4650      H4654   1.110       .  S
C4650      H4655   1.110       .  S
C4650      H4656   1.111       .  S
C4657      C4658   1.403       .  A
C4657      C4662   1.403       .  A
C4657      H4664   1.084       .  S
C4658      C4659   1.406       .  A
C4659      C4660   1.404       .  A
C4659      C4666   1.506       .  S
C4660      C4661   1.412       .  A
C4660      H4665   1.083       .  S
C4661      C4662   1.416       .  A
C4662      C4663   1.508       .  S
C4663      H4667   1.111       .  S
C4663      H4668   1.108       .  S
C4663      H4669   1.110       .  S
C4666      H4670   1.110       .  S
C4666      H4671   1.110       .  S
C4666      H4672   1.111       .  S
C4673      C4674   1.404       .  A
C4673      C4678   1.408       .  A
C4673      H4680   1.084       .  S
C4674      C4675   1.413       .  A
C4675      C4676   1.401       .  A
C4675      C4682   1.508       .  S
C4676      C4677   1.405       .  A
C4676      H4681   1.085       .  S
C4677      C4678   1.413       .  A
C4678      C4679   1.506       .  S
C4679      H4683   1.111       .  S
C4679      H4684   1.110       .  S
C4679      H4685   1.110       .  S
C4682      H4686   1.110       .  S
C4682      H4687   1.110       .  S
C4682      H4688   1.108       .  S
C4689      C4690   1.399       .  A
C4689      C4694   1.406       .  A
C4689      H4696   1.084       .  S
C4690      C4691   1.409       .  A
C4691      C4692   1.399       .  A
C4691      C4698   1.508       .  S
C4692      C4693   1.407       .  A
C4692      H4697   1.084       .  S
C4693      C4694   1.424       .  A
C4694      C4695   1.509       .  S
C4695      H4699   1.111       .  S
C4695      H4700   1.110       .  S
C4695      H4701   1.111       .  S
C4698      H4702   1.110       .  S
C4698      H4703   1.110       .  S
C4698      H4704   1.111       .  S
C4705      C4706   1.399       .  A
C4705      C4710   1.403       .  A
C4705      H4712   1.084       .  S
C4706      C4707   1.405       .  A
C4707      C4708   1.400       .  A
C4707      C4714   1.507       .  S
C4708      C4709   1.412       .  A
C4708      H4713   1.083       .  S
C4709      C4710   1.423       .  A
C4710      C4711   1.508       .  S
C4711      H4715   1.111       .  S
C4711      H4716   1.110       .  S
C4711      H4717   1.110       .  S
C4714      H4718   1.110       .  S
C4714      H4719   1.110       .  S
C4714      H4720   1.111       .  S
C4721      C4722   1.406       .  A
C4721      C4726   1.407       .  A
C4721      H4728   1.084       .  S
C4722      C4723   1.409       .  A
C4723      C4724   1.400       .  A
C4723      C4730   1.508       .  S
C4724      C4725   1.406       .  A
C4724      H4729   1.085       .  S
C4725      C4726   1.410       .  A
C4726      C4727   1.505       .  S
C4727      H4731   1.111       .  S
C4727      H4732   1.110       .  S
C4727      H4733   1.110       .  S
C4730      H4734   1.109       .  S
C4730      H4735   1.110       .  S
C4730      H4736   1.111       .  S
C4737      C4738   1.402       .  A
C4737      C4742   1.401       .  A
C4737      H4744   1.084       .  S
C4738      C4739   1.407       .  A
C4739      C4740   1.400       .  A
C4739      C4746   1.507       .  S
C4740      C4741   1.409       .  A
C4740      H4745   1.084       .  S
C4741      C4742   1.415       .  A
C4742      C4743   1.508       .  S
C4743      H4747   1.111       .  S
C4743      H4748   1.110       .  S
C4743      H4749   1.108       .  S
C4746      H4750   1.110       .  S
C4746      H4751   1.110       .  S
C4746      H4752   1.111       .  S
C4753      C4754   1.401       .  A
C4753      C4758   1.403       .  A
C4753      H4760   1.084       .  S
C4754      C4755   1.412       .  A
C4755      C4756   1.402       .  A
C4755      C4762   1.506       .  S
C4756      C4757   1.401       .  A
C4756      H4761   1.084       .  S
C4757      C4758   1.412       .  A
C4758      C4759   1.507       .  S
C4759      H4763   1.111       .  S
C4759      H4764   1.110       .  S
C4759      H4765   1.110       .  S
C4762      H4766   1.110       .  S
C4762      H4767   1.110       .  S
C4762      H4768   1.111       .  S
C4769      C4770   1.405       .  A
C4769      C4774   1.408       .  A
C4769      H4776   1.084       .  S
C4770      C4771   1.410       .  A
C4771      C4772   1.403       .  A
C4771      C4778   1.507       .  S
C4772      C4773   1.405       .  A
C4772      H4777   1.084       .  S
C4773      C4774   1.412       .  A
C4774      C4775   1.505       .  S
C4775      H4779   1.111       .  S
C4775      H4780   1.110       .  S
C4775      H4781   1.110       .  S
C4778      H4782   1.110       .  S
C4778      H4783   1.110       .  S
C4778      H4784   1.111       .  S
C4785      C4786   1.405       .  A
C4785      C4790   1.403       .  A
C4785      H4792   1.085       .  S
C4786      C4787   1.411       .  A
C4787      C4788   1.408       .  A
C4787      C4794   1.505       .  S
C4788      C4789   1.406       .  A
C4788      H4793   1.084       .  S
C4789      C4790   1.410       .  A
C4790      C4791   1.507       .  S
C4791      H4795   1.111       .  S
C4791      H4796   1.110       .  S
C4791      H4797   1.110       .  S
C4794      H4798   1.111       .  S
C4794      H4799   1.110       .  S
C4794      H4800   1.111       .  S
C4801      C4802   1.400       .  A
C4801      C4806   1.404       .  A
C4801      H4808   1.084       .  S
C4802      C4803   1.414       .  A
C4803      C4804   1.408       .  A
C4803      C4810   1.506       .  S
C4804      C4805   1.403       .  A
C4804      H4809   1.084       .  S
C4805      C4806   1.416       .  A
C4806      C4807   1.509       .  S
C4807      H4811   1.111       .  S
C4807      H4812   1.110       .  S
C4807      H4813   1.110       .  S
C4810      H4814   1.110       .  S
C4810      H4815   1.110       .  S
C4810      H4816   1.111       .  S
C4817      C4818   1.403       .  A
C4817      C4822   1.397       .  A
C4817      H4824   1.085       .  S
C4818      C4819   1.408       .  A
C4819      C4820   1.404       .  A
C4819      C4826   1.505       .  S
C4820      C4821   1.406       .  A
C4820      H4825   1.084       .  S
C4821      C4822   1.410       .  A
C4822      C4823   1.508       .  S
C4823      H4827   1.111       .  S
C4823      H4828   1.110       .  S
C4823      H4829   1.109       .  S
C4826      H4830   1.110       .  S
C4826      H4831   1.110       .  S
C4826      H4832   1.111       .  S
C4833      C4834   1.397       .  A
C4833      C4838   1.402       .  A
C4833      H4840   1.084       .  S
C4834      C4835   1.409       .  A
C4835      C4836   1.404       .  A
C4835      C4842   1.506       .  S
C4836      C4837   1.408       .  A
C4836      H4841   1.084       .  S
C4837      C4838   1.423       .  A
C4838      C4839   1.509       .  S
C4839      H4843   1.111       .  S
C4839      H4844   1.110       .  S
C4839      H4845   1.108       .  S
C4842      H4846   1.110       .  S
C4842      H4847   1.110       .  S
C4842      H4848   1.111       .  S
C4849      C4850   1.398       .  A
C4849      C4854   1.404       .  A
C4849      H4856   1.084       .  S
C4850      C4851   1.408       .  A
C4851      C4852   1.401       .  A
C4851      C4858   1.507       .  S
C4852      C4853   1.409       .  A
C4852      H4857   1.084       .  S
C4853      C4854   1.425       .  A
C4854      C4855   1.510       .  S
C4855      H4859   1.111       .  S
C4855      H4860   1.110       .  S
C4855      H4861   1.111       .  S
C4858      H4862   1.110       .  S
C4858      H4863   1.110       .  S
C4858      H4864   1.111       .  S
C4865      C4866   1.404       .  A
C4865      C4870   1.407       .  A
C4865      H4872   1.084       .  S
C4866      C4867   1.410       .  A
C4867      C4868   1.402       .  A
C4867      C4874   1.507       .  S
C4868      C4869   1.404       .  A
C4868      H4873   1.085       .  S
C4869      C4870   1.411       .  A
C4870      C4871   1.506       .  S
C4871      H4875   1.111       .  S
C4871      H4876   1.110       .  S
C4871      H4877   1.111       .  S
C4874      H4878   1.110       .  S
C4874      H4879   1.110       .  S
C4874      H4880   1.111       .  S
C4881      C4882   1.412       .  A
C4881      C4886   1.405       .  A
C4881      H4888   1.084       .  S
C4882      C4883   1.425       .  A
C4883      C4884   1.410       .  A
C4883      C4890   1.508       .  S
C4884      C4885   1.401       .  A
C4884      H4889   1.084       .  S
C4885      C4886   1.412       .  A
C4886      C4887   1.507       .  S
C4887      H4891   1.110       .  S
C4887      H4892   1.110       .  S
C4887      H4893   1.108       .  S
C4890      H4894   1.109       .  S
C4890      H4895   1.111       .  S
C4890      H4896   1.111       .  S
C4897      C4898   1.407   1_455  A
C4897      C4902   1.407       .  A
C4897      H4904   1.083       .  S
C4898      C4899   1.422       .  A
C4899      C4900   1.408   1_655  A
C4899      C4906   1.508       .  S
C4900      C4901   1.403       .  A
C4900      H4905   1.084       .  S
C4901      C4902   1.413       .  A
C4902      C4903   1.507       .  S
C4903      H4907   1.111       .  S
C4903      H4908   1.110       .  S
C4903      H4909   1.108       .  S
C4906      H4910   1.111       .  S
C4906      H4911   1.107       .  S
C4906      H4912   1.111       .  S
C4913      C4914   1.407       .  A
C4913      C4918   1.404       .  A
C4913      H4920   1.084   1_545  S
C4914      C4915   1.419       .  A
C4915      C4916   1.406       .  A
C4915      C4922   1.507       .  S
C4916      C4917   1.402       .  A
C4916      H4921   1.084       .  S
C4917      C4918   1.413       .  A
C4918      C4919   1.508       .  S
C4919      H4923   1.111       .  S
C4919      H4924   1.110       .  S
C4919      H4925   1.109       .  S
C4922      H4926   1.110       .  S
C4922      H4927   1.107       .  S
C4922      H4928   1.111       .  S
C4929      C4930   1.410       .  A
C4929      C4934   1.405       .  A
C4929      H4936   1.083       .  S
C4930      C4931   1.426       .  A
C4931      C4932   1.407       .  A
C4931      C4938   1.509       .  S
C4932      C4933   1.399       .  A
C4932      H4937   1.084       .  S
C4933      C4934   1.409       .  A
C4934      C4935   1.506       .  S
C4935      H4939   1.111       .  S
C4935      H4940   1.110       .  S
C4935      H4941   1.110       .  S
C4938      H4942   1.110       .  S
C4938      H4943   1.110       .  S
C4938      H4944   1.111       .  S
C4945      C4946   1.405   1_554  A
C4945      C4950   1.405       .  A
C4945      H4952   1.084       .  S
C4946      C4947   1.414       .  A
C4947      C4948   1.403   1_556  A
C4947      C4954   1.507       .  S
C4948      C4949   1.404       .  A
C4948      H4953   1.084       .  S
C4949      C4950   1.414       .  A
C4950      C4951   1.508       .  S
C4951      H4955   1.111       .  S
C4951      H4956   1.110       .  S
C4951      H4957   1.107       .  S
C4954      H4958   1.110       .  S
C4954      H4959   1.102       .  S
C4954      H4960   1.111       .  S
C4961      C4962   1.411   1_455  A
C4961      C4966   1.405       .  A
C4961      H4968   1.084   1_455  S
C4962      C4963   1.426   1_655  A
C4963      C4964   1.406       .  A
C4963      C4970   1.507       .  S
C4964      C4965   1.399       .  A
C4964      H4969   1.084       .  S
C4965      C4966   1.412       .  A
C4966      C4967   1.507       .  S
C4967      H4971   1.111       .  S
C4967      H4972   1.109       .  S
C4967      H4973   1.110       .  S
C4970      H4974   1.110       .  S
C4970      H4975   1.103   1_455  S
C4970      H4976   1.111       .  S
C4977      C4978   1.408       .  A
C4977      C4982   1.402       .  A
C4977      H4984   1.084       .  S
C4978      C4979   1.418       .  A
C4979      C4980   1.405       .  A
C4979      C4986   1.507       .  S
C4980      C4981   1.403       .  A
C4980      H4985   1.084       .  S
C4981      C4982   1.411       .  A
C4982      C4983   1.508       .  S
C4983      H4987   1.111       .  S
C4983      H4988   1.108       .  S
C4983      H4989   1.111       .  S
C4986      H4990   1.103       .  S
C4986      H4991   1.110       .  S
C4986      H4992   1.111       .  S
C4993      C4994   1.413       .  A
C4993      C4998   1.403       .  A
C4993      H5000   1.083       .  S
C4994      C4995   1.427       .  A
C4995      C4996   1.405       .  A
C4995      C5002   1.508       .  S
C4996      C4997   1.397       .  A
C4996      H5001   1.084       .  S
C4997      C4998   1.406       .  A
C4998      C4999   1.507       .  S
C4999      H5003   1.111       .  S
C4999      H5004   1.110       .  S
C4999      H5005   1.110       .  S
C5002      H5006   1.110       .  S
C5002      H5007   1.110       .  S
C5002      H5008   1.111       .  S
C5009      C5010   1.410       .  A
C5009      C5014   1.405       .  A
C5009      H5016   1.083       .  S
C5010      C5011   1.421       .  A
C5011      C5012   1.404       .  A
C5011      C5018   1.507   1_554  S
C5012      C5013   1.399       .  A
C5012      H5017   1.084       .  S
C5013      C5014   1.409       .  A
C5014      C5015   1.506       .  S
C5015      H5019   1.111       .  S
C5015      H5020   1.109       .  S
C5015      H5021   1.110       .  S
C5018      H5022   1.105       .  S
C5018      H5023   1.110       .  S
C5018      H5024   1.111       .  S
C5025      C5026   1.409       .  A
C5025      C5030   1.406       .  A
C5025      H5032   1.084       .  S
C5026      C5027   1.425       .  A
C5027      C5028   1.409       .  A
C5027      C5034   1.508       .  S
C5028      C5029   1.401       .  A
C5028      H5033   1.084       .  S
C5029      C5030   1.414       .  A
C5030      C5031   1.508       .  S
C5031      H5035   1.110       .  S
C5031      H5036   1.110       .  S
C5031      H5037   1.108       .  S
C5034      H5038   1.110       .  S
C5034      H5039   1.109       .  S
C5034      H5040   1.111       .  S
C5041      C5042   1.409       .  A
C5041      C5046   1.408       .  A
C5041      H5048   1.083       .  S
C5042      C5043   1.420       .  A
C5043      C5044   1.406       .  A
C5043      C5050   1.507       .  S
C5044      C5045   1.403       .  A
C5044      H5049   1.084       .  S
C5045      C5046   1.414       .  A
C5046      C5047   1.508       .  S
C5047      H5051   1.111       .  S
C5047      H5052   1.108       .  S
C5047      H5053   1.110       .  S
C5050      H5054   1.105       .  S
C5050      H5055   1.110       .  S
C5050      H5056   1.111       .  S
C5057      C5058   1.408       .  A
C5057      C5062   1.409       .  A
C5057      H5064   1.084       .  S
C5058      C5059   1.422       .  A
C5059      C5060   1.409       .  A
C5059      C5066   1.508       .  S
C5060      C5061   1.402       .  A
C5060      H5065   1.084       .  S
C5061      C5062   1.414       .  A
C5062      C5063   1.507       .  S
C5063      H5067   1.111       .  S
C5063      H5068   1.108       .  S
C5063      H5069   1.110       .  S
C5066      H5070   1.104       .  S
C5066      H5071   1.110       .  S
C5066      H5072   1.111       .  S
C5073      C5074   1.410       .  A
C5073      C5078   1.403       .  A
C5073      H5080   1.084       .  S
C5074      C5075   1.418       .  A
C5075      C5076   1.402       .  A
C5075      C5082   1.508       .  S
C5076      C5077   1.401       .  A
C5076      H5081   1.084       .  S
C5077      C5078   1.408       .  A
C5078      C5079   1.507       .  S
C5079      H5083   1.111       .  S
C5079      H5084   1.110       .  S
C5079      H5085   1.109       .  S
C5082      H5086   1.110       .  S
C5082      H5087   1.109       .  S
C5082      H5088   1.111       .  S
C5089      C5090   1.404       .  A
C5089      C5094   1.401       .  A
C5089      H5096   1.085       .  S
C5090      C5091   1.410       .  A
C5091      C5092   1.405       .  A
C5091      C5098   1.506       .  S
C5092      C5093   1.405       .  A
C5092      H5097   1.084       .  S
C5093      C5094   1.410       .  A
C5094      C5095   1.507       .  S
C5095      H5099   1.110       .  S
C5095      H5100   1.110       .  S
C5095      H5101   1.109       .  S
C5098      H5102   1.110       .  S
C5098      H5103   1.111       .  S
C5098      H5104   1.111       .  S
C5105      C5106   1.409       .  A
C5105      C5110   1.402       .  A
C5105      H5112   1.084       .  S
C5106      C5107   1.418       .  A
C5107      C5108   1.405       .  A
C5107      C5114   1.508       .  S
C5108      C5109   1.402       .  A
C5108      H5113   1.084       .  S
C5109      C5110   1.408       .  A
C5110      C5111   1.506       .  S
C5111      H5115   1.110       .  S
C5111      H5116   1.110       .  S
C5111      H5117   1.110       .  S
C5114      H5118   1.110       .  S
C5114      H5119   1.109       .  S
C5114      H5120   1.111       .  S
C5121      C5122   1.397       .  A
C5121      C5126   1.403       .  A
C5121      H5128   1.084       .  S
C5122      C5123   1.413       .  A
C5123      C5124   1.403       .  A
C5123      C5130   1.508       .  S
C5124      C5125   1.407       .  A
C5124      H5129   1.084       .  S
C5125      C5126   1.426       .  A
C5126      C5127   1.510       .  S
C5127      H5131   1.111       .  S
C5127      H5132   1.110       .  S
C5127      H5133   1.110       .  S
C5130      H5134   1.110       .  S
C5130      H5135   1.108       .  S
C5130      H5136   1.110       .  S
C5137      C5138   1.406       .  A
C5137      C5142   1.401       .  A
C5137      H5144   1.085       .  S
C5138      C5139   1.412       .  A
C5139      C5140   1.408       .  A
C5139      C5146   1.505       .  S
C5140      C5141   1.405       .  A
C5140      H5145   1.084       .  S
C5141      C5142   1.411       .  A
C5142      C5143   1.508       .  S
C5143      H5147   1.111       .  S
C5143      H5148   1.109       .  S
C5143      H5149   1.110       .  S
C5146      H5150   1.111       .  S
C5146      H5151   1.110       .  S
C5146      H5152   1.111       .  S
C5153      C5154   1.405       .  A
C5153      C5158   1.402       .  A
C5153      H5160   1.085       .  S
C5154      C5155   1.409       .  A
C5155      C5156   1.406       .  A
C5155      C5162   1.505       .  S
C5156      C5157   1.406       .  A
C5156      H5161   1.084       .  S
C5157      C5158   1.410       .  A
C5158      C5159   1.507       .  S
C5159      H5163   1.111       .  S
C5159      H5164   1.109       .  S
C5159      H5165   1.110       .  S
C5162      H5166   1.110       .  S
C5162      H5167   1.110       .  S
C5162      H5168   1.111       .  S
C5169      C5170   1.412       .  A
C5169      C5174   1.400       .  A
C5169      H5176   1.083       .  S
C5170      C5171   1.421       .  A
C5171      C5172   1.409       .  A
C5171      C5178   1.508       .  S
C5172      C5173   1.404       .  A
C5172      H5177   1.084       .  S
C5173      C5174   1.407       .  A
C5174      C5175   1.508       .  S
C5175      H5179   1.111       .  S
C5175      H5180   1.110       .  S
C5175      H5181   1.110       .  S
C5178      H5182   1.107       .  S
C5178      H5183   1.110       .  S
C5178      H5184   1.111       .  S
C5185      C5186   1.401       .  A
C5185      C5190   1.401       .  A
C5185      H5192   1.084       .  S
C5186      C5187   1.414       .  A
C5187      C5188   1.403       .  A
C5187      C5194   1.507       .  S
C5188      C5189   1.401       .  A
C5188      H5193   1.085       .  S
C5189      C5190   1.412       .  A
C5190      C5191   1.508       .  S
C5191      H5195   1.111       .  S
C5191      H5196   1.110       .  S
C5191      H5197   1.110       .  S
C5194      H5198   1.108       .  S
C5194      H5199   1.111       .  S
C5194      H5200   1.110       .  S
C5201      C5202   1.405       .  A
C5201      C5206   1.404       .  A
C5201      H5208   1.084       .  S
C5202      C5203   1.424       .  A
C5203      C5204   1.404       .  A
C5203      C5210   1.510       .  S
C5204      C5205   1.399       .  A
C5204      H5209   1.084       .  S
C5205      C5206   1.416       .  A
C5206      C5207   1.507       .  S
C5207      H5211   1.110       .  S
C5207      H5212   1.108       .  S
C5207      H5213   1.110       .  S
C5210      H5214   1.111       .  S
C5210      H5215   1.110       .  S
C5210      H5216   1.111       .  S
C5217      C5218   1.405       .  A
C5217      C5222   1.406       .  A
C5217      H5224   1.084       .  S
C5218      C5219   1.410       .  A
C5219      C5220   1.403       .  A
C5219      C5226   1.507       .  S
C5220      C5221   1.410       .  A
C5220      H5225   1.084       .  S
C5221      C5222   1.418       .  A
C5222      C5223   1.508       .  S
C5223      H5227   1.111       .  S
C5223      H5228   1.109       .  S
C5223      H5229   1.111       .  S
C5226      H5230   1.108       .  S
C5226      H5231   1.110       .  S
C5226      H5232   1.111       .  S
C5233      C5234   1.399       .  A
C5233      C5238   1.407       .  A
C5233      H5240   1.084       .  S
C5234      C5235   1.417       .  A
C5235      C5236   1.398       .  A
C5235      C5242   1.510       .  S
C5236      C5237   1.407       .  A
C5236      H5241   1.083       .  S
C5237      C5238   1.430       .  A
C5238      C5239   1.507       .  S
C5239      H5243   1.111       .  S
C5239      H5244   1.110       .  S
C5239      H5245   1.107       .  S
C5242      H5246   1.106       .  S
C5242      H5247   1.110       .  S
C5242      H5248   1.111       .  S
C5249      C5250   1.404       .  A
C5249      C5254   1.404       .  A
C5249      H5256   1.084       .  S
C5250      C5251   1.409       .  A
C5251      C5252   1.397       .  A
C5251      C5258   1.507       .  S
C5252      C5253   1.404       .  A
C5252      H5257   1.085       .  S
C5253      C5254   1.411       .  A
C5254      C5255   1.506       .  S
C5255      H5259   1.111       .  S
C5255      H5260   1.110       .  S
C5255      H5261   1.110       .  S
C5258      H5262   1.109       .  S
C5258      H5263   1.110       .  S
C5258      H5264   1.111       .  S
