geometry optimzed in LAMMPS
_audit_creation_date              2020-11-30 
_audit_creation_method            'lammps2cif' 
_symmetry_space_group_name_H-M    'P1' 
_symmetry_Int_Tables_number       1 
_symmetry_cell_setting            triclinic 
loop_ 
_symmetry_equiv_pos_as_xyz 
  x,y,z 
_cell_length_a                    46.000515612469684 
_cell_length_b                    45.936006009524895 
_cell_length_c                    45.89320636704952 
_cell_angle_alpha                 90.03636851937672 
_cell_angle_beta                  90.13170748741953 
_cell_angle_gamma                 89.96038571590621 
loop_ 
_atom_site_label 
_atom_site_type_symbol 
_atom_site_fract_x 
_atom_site_fract_y 
_atom_site_fract_z 
_atom_site_charge 
O1          O  0.71881973  0.71832294  0.21657430    -0.88090
C2          C  0.73511733  0.71086907  0.30272907     0.87940
Mg3        Mg  0.75213476  0.71973587  0.18490043     1.58150
O4          O  0.71496196  0.78085443  0.28045008    -0.87820
O5          O  0.68306348  0.74683955  0.23015790    -0.75150
C6          C  0.85059350  0.81079662  0.23953803     0.92990
O7          O  0.77093577  0.68468944  0.24874541    -0.74960
O8          O  0.84821352  0.79004205  0.22126783    -0.82470
Mg9        Mg  0.72107880  0.68385487  0.24815048     1.57960
C10         C  0.75812226  0.85319161  0.30829385     0.92920
O11         O  0.67127152  0.67867893  0.24767453    -0.80730
H12         H  0.68651460  0.80764470  0.26119528    -0.06070
C13         C  0.80135227  0.76630803  0.28910317     0.87850
O14         O  0.75019195  0.76965641  0.18378708    -0.75240
O15         O  0.71950482  0.71590873  0.28131938    -0.88000
O16         O  0.74416965  0.83139535  0.31837910    -0.80810
C17         C  0.69065999  0.75924931  0.35214036     0.93030
C18         C  0.64886752  0.68901653  0.26031613     0.92880
Mg19       Mg  0.77865186  0.81609877  0.25261635     1.57950
O20         O  0.82865352  0.82008467  0.25367733    -0.80740
O21         O  0.72868480  0.81643247  0.25172347    -0.74980
O22         O  0.68105040  0.74534169  0.33009640    -0.80820
O23         O  0.72508118  0.64860653  0.21423467    -0.82530
O24         O  0.81804786  0.75449590  0.16816942    -0.80850
C25         C  0.70907301  0.80194700  0.26472561     0.87320
O26         O  0.77936847  0.78474883  0.21847052    -0.87990
O27         O  0.77981983  0.78157902  0.28372149    -0.88100
O28         O  0.81577754  0.75381833  0.26905522    -0.75150
Mg29       Mg  0.68415046  0.74633606  0.28001797     1.57970
O30         O  0.71111965  0.77776828  0.34975572    -0.82530
H31         H  0.69118409  0.73622400  0.18805021    -0.06250
O32         O  0.78395940  0.71973653  0.21902815    -0.87800
H33         H  0.81286591  0.69370138  0.23858918    -0.06080
H34         H  0.75909031  0.81224682  0.19144128    -0.06250
C35         C  0.79021323  0.69903222  0.23512547     0.87300
C36         C  0.69729979  0.73340152  0.21065002     0.87880
C37         C  0.76315933  0.78985868  0.19754249     0.87930
H38         H  0.80759214  0.76281196  0.31157295    -0.06230
O39         O  0.74774855  0.73109664  0.31676975    -0.75260
Mg40       Mg  0.81463777  0.75441042  0.21887880     1.58000
H41         H  0.73895545  0.68850309  0.30904481    -0.06250
C42         C  0.74124367  0.64739215  0.19183559     0.92920
O43         O  0.78611607  0.72283680  0.15035091    -0.82490
C44         C  0.80761171  0.73980697  0.14691385     0.92980
O45         O  0.65009468  0.71119655  0.27688641    -0.82470
Mg46       Mg  0.74590123  0.78099957  0.31530245     1.58180
O47         O  0.75341876  0.66986852  0.18111793    -0.80810
O48         O  0.77599871  0.85032871  0.28743129    -0.82500
O49         O  0.71793116  0.21487024  0.72126175    -0.88090
C50         C  0.70894235  0.30162704  0.73590761     0.87940
Mg51       Mg  0.72005850  0.18331964  0.75497135     1.58150
O52         O  0.77942106  0.28073842  0.71603025    -0.87820
O53         O  0.74607430  0.22894232  0.68539359    -0.75150
C54         C  0.80994677  0.24005143  0.85243407     0.92990
O55         O  0.68386796  0.24741402  0.77286553    -0.74960
O56         O  0.78878424  0.22247009  0.85005988    -0.82470
Mg57       Mg  0.68306878  0.24599106  0.72303371     1.57960
C58         C  0.85079093  0.31006568  0.76042567     0.92920
O59         O  0.67747640  0.24477948  0.67327904    -0.80730
H60         H  0.80645582  0.26134185  0.68800749    -0.06070
C61         C  0.76426996  0.28966118  0.80257252     0.87850
O62         O  0.76986463  0.18329680  0.75293141    -0.75240
O63         O  0.71438938  0.28007893  0.72066878    -0.88000
O64         O  0.82936045  0.32028289  0.74587125    -0.80810
C65         C  0.75736259  0.35129763  0.69019691     0.93030
C66         C  0.68732151  0.25730300  0.65058498     0.92880
Mg67       Mg  0.81450656  0.25346032  0.78046770     1.57950
O68         O  0.81912898  0.25486540  0.83082919    -0.80740
O69         O  0.81487034  0.25215874  0.73044046    -0.74980
O70         O  0.74410670  0.32896619  0.68026274    -0.80820
O71         O  0.64879010  0.21120143  0.72786524    -0.82530
O72         O  0.75469949  0.16949810  0.82099082    -0.80850
C73         C  0.80058640  0.26504306  0.71051895     0.87320
O74         O  0.78376688  0.21899689  0.78145317    -0.87990
O75         O  0.77981003  0.28436685  0.78123069    -0.88100
O76         O  0.75200338  0.26956665  0.81707995    -0.75150
Mg77       Mg  0.74479285  0.27880122  0.68519586     1.57970
O78         O  0.77452102  0.35006705  0.71196038    -0.82530
H79         H  0.73677489  0.18666718  0.69398793    -0.06250
O80         O  0.71917691  0.21814832  0.78615139    -0.87800
H81         H  0.69291176  0.23744368  0.81495712    -0.06080
H82         H  0.81209997  0.19235716  0.76194500    -0.06250
C83         C  0.69826959  0.23395701  0.79227930     0.87300
C84         C  0.73323774  0.20921285  0.69984769     0.87880
C85         C  0.78956136  0.19788171  0.76574544     0.87930
H86         H  0.76029219  0.31210626  0.80852777    -0.06230
O87         O  0.72886112  0.31619649  0.74840865    -0.75260
Mg88       Mg  0.75352269  0.21948831  0.81670700     1.58000
H89         H  0.68649307  0.30760841  0.73955195    -0.06250
C90         C  0.64777810  0.18941114  0.74495145     0.92920
O91         O  0.72441375  0.14858845  0.78936921    -0.82490
C92         C  0.74155188  0.14713655  0.81110224     0.92980
O93         O  0.70927043  0.27417991  0.65131918    -0.82470
Mg94       Mg  0.77874262  0.31581185  0.74698633     1.58180
O95         O  0.67046800  0.17897249  0.75701108    -0.80810
O96         O  0.84786007  0.28835824  0.77726298    -0.82500
O97         O  0.78229569  0.78138242  0.71896733    -0.88090
C98         C  0.69666506  0.76494438  0.70964916     0.87940
Mg99       Mg  0.81353522  0.74736979  0.71882887     1.58150
O100        O  0.71757508  0.78367516  0.78052913    -0.87820
O101        O  0.76798807  0.81636328  0.74815574    -0.75150
C102        C  0.75904473  0.64808059  0.80837625     0.92990
O103        O  0.75060375  0.73097318  0.68283424    -0.74960
O104        O  0.77652155  0.64996318  0.78698786    -0.82470
Mg105      Mg  0.75138257  0.78107954  0.68421594     1.57960
C106        C  0.69009779  0.74046521  0.85144745     0.92920
O107        O  0.75226706  0.83138734  0.68153650    -0.80730
H108        H  0.73631219  0.81211334  0.80769921    -0.06070
C109        C  0.70961435  0.69744475  0.76462371     0.87850
O110        O  0.81512696  0.74810619  0.76887420    -0.75240
O111        O  0.71751483  0.78094503  0.71551797    -0.88000
O112        O  0.67940982  0.75303125  0.82910969    -0.80810
C113        C  0.64607466  0.80794097  0.75894099     0.93030
C114        C  0.73830277  0.85299936  0.69195831     0.92880
Mg115      Mg  0.74624731  0.72015702  0.81498405     1.57950
O116        O  0.74570431  0.67020801  0.81851717    -0.80740
O117        O  0.74683153  0.76999330  0.81576469    -0.74980
O118        O  0.66814087  0.81865375  0.74606960    -0.80820
O119        O  0.78596180  0.77907284  0.64981417    -0.82530
O120        O  0.82981468  0.68187007  0.75349278    -0.80850
C121        C  0.73320716  0.78954124  0.80171501     0.87320
O122        O  0.77990222  0.71945628  0.78338413    -0.87990
O123        O  0.71508845  0.71880876  0.78015194    -0.88100
O124        O  0.72944969  0.68336377  0.75148566    -0.75150
Mg125      Mg  0.71805732  0.81527649  0.74702845     1.57970
O126        O  0.64816130  0.78627874  0.77605388    -0.82530
H127        H  0.81029009  0.80836468  0.73856591    -0.06250
O128        O  0.77912942  0.71630152  0.71831473    -0.87800
H129        H  0.75985952  0.68849039  0.69083375    -0.06080
H130        H  0.80739137  0.73850625  0.81131843    -0.06250
C131        C  0.76343579  0.71093969  0.69702894     0.87300
C132        C  0.78784092  0.80237308  0.73495323     0.87880
C133        C  0.80113631  0.73508144  0.78883600     0.87930
H134        H  0.68717696  0.69122688  0.76127809    -0.06230
O135        O  0.68270158  0.75138849  0.72926172    -0.75260
Mg136      Mg  0.77931952  0.68466682  0.75231538     1.58000
H137        H  0.69085806  0.76152249  0.68704481    -0.06250
C138        C  0.80674528  0.76103651  0.64688414     0.92920
O139        O  0.84745603  0.71259800  0.72071644    -0.82490
C140        C  0.85112362  0.69217105  0.73897820     0.92980
O141        O  0.72051929  0.84992957  0.71289441    -0.82470
Mg142      Mg  0.68320766  0.75220046  0.77922029     1.58180
O143        O  0.81657430  0.74668419  0.66854336    -0.80810
O144        O  0.71183882  0.72339827  0.84980094    -0.82500
C145        C  0.53544045  0.35887304  0.24757566     0.03390
C146        C  0.51444284  0.36061166  0.26957403    -0.12760
C147        C  0.48828865  0.37571986  0.26446652     0.00890
C148        C  0.48381564  0.38980129  0.23756735    -0.11290
C149        C  0.50531956  0.38876857  0.21586643     0.03380
C150        C  0.53050525  0.37245055  0.22086179    -0.10710
H151        H  0.51806299  0.34966847  0.29017769     0.08970
H152        H  0.46384012  0.40173127  0.23372423     0.06500
H153        H  0.54659357  0.37025104  0.20375661     0.06350
C154        C  0.36418443  0.25193522  0.53737315     0.03390
C155        C  0.36307043  0.27251193  0.51489958    -0.12760
C156        C  0.37759741  0.26723428  0.48831407     0.00890
C157        C  0.39118934  0.23991031  0.48407195    -0.11290
C158        C  0.39083398  0.21874936  0.50619339     0.03380
C159        C  0.37883692  0.22577167  0.53316823    -0.10710
H160        H  0.35041984  0.29216101  0.51795938     0.08970
H161        H  0.40160885  0.23489661  0.46353241     0.06500
H162        H  0.37953684  0.21002819  0.55077034     0.06350
C163        C  0.37580824  0.35238575  0.39456376     0.03390
C164        C  0.39761193  0.35261218  0.37321986    -0.12760
C165        C  0.39752122  0.37388724  0.35133508     0.00890
C166        C  0.37537884  0.39486480  0.35063244    -0.11290
C167        C  0.35315702  0.39467768  0.37161356     0.03380
C168        C  0.35379578  0.37357440  0.39379057    -0.10710
H169        H  0.41476973  0.33643012  0.37379661     0.08970
H170        H  0.37559784  0.41143601  0.33383708     0.06500
H171        H  0.33689232  0.37331353  0.41020522     0.06350
C172        C  0.21460313  0.49968921  0.38387034     0.03390
C173        C  0.23601724  0.47794267  0.38429663    -0.12760
C174        C  0.26255419  0.48241602  0.36973041     0.00890
C175        C  0.26748508  0.50876793  0.35490734    -0.11290
C176        C  0.24589570  0.53034795  0.35440683     0.03380
C177        C  0.21964526  0.52554724  0.36876853    -0.10710
H178        H  0.23235423  0.45801310  0.39635571     0.08970
H179        H  0.28808870  0.51257319  0.34416501     0.06500
H180        H  0.20328647  0.54258571  0.36905913     0.06350
O181        O  0.96964733  0.47028002  0.53353283    -0.88090
C182        C  0.96159923  0.48574167  0.44724316     0.87940
Mg183      Mg  0.96967127  0.50461023  0.56443414     1.58150
O184        O  0.03200073  0.46671891  0.46887322    -0.87820
O185        O  0.99897621  0.43520651  0.51985643    -0.75150
C186        C  0.06054312  0.60236007  0.51014992     0.92990
O187        O  0.93440385  0.52053224  0.50062484    -0.74960
O188        O  0.03835867  0.60105710  0.52656531    -0.82470
Mg189      Mg  0.93537899  0.47046952  0.50211278     1.57960
C190        C  0.10352456  0.51012385  0.44111284     0.92920
O191        O  0.93222716  0.42004053  0.50371352    -0.80730
H192        H  0.05895228  0.43829110  0.48788304    -0.06070
C193        C  0.01668515  0.55291041  0.45968599     0.87850
O194        O  0.01958136  0.50333426  0.56628792    -0.75240
O195        O  0.96705774  0.46997965  0.46844024    -0.88000
O196        O  0.08169365  0.49659265  0.43042453    -0.80810
C197        C  0.01059891  0.44122586  0.39781226     0.93030
C198        C  0.94279622  0.39833725  0.48991769     0.92880
Mg199      Mg  0.06633766  0.53028226  0.49727214     1.57950
O200        O  0.07078313  0.58008234  0.49716158    -0.80740
O201        O  0.06706016  0.48046739  0.49815436    -0.74980
O202        O  0.99781112  0.43102403  0.42014473    -0.80820
O203        O  0.90075242  0.47349206  0.53644329    -0.82530
O204        O  0.00445929  0.57017455  0.57964861    -0.80850
C205        C  0.05305294  0.46086261  0.48461562     0.87320
O206        O  0.03450752  0.53143079  0.53071672    -0.87990
O207        O  0.03213835  0.53160723  0.46550333    -0.88100
O208        O  0.00337970  0.56716179  0.47930991    -0.75150
Mg209      Mg  0.99826991  0.43550230  0.46984876     1.57970
O210        O  0.02761547  0.46302382  0.39913684    -0.82530
H211        H  0.98899973  0.44364787  0.56206979    -0.06250
O212        O  0.96965128  0.53517906  0.52940466    -0.87800
H213        H  0.94264604  0.56302919  0.50956293    -0.06080
H214        H  0.06204955  0.51244659  0.55864384    -0.06250
C215        C  0.94859704  0.54056491  0.51343741     0.87300
C216        C  0.98556931  0.44937199  0.53945851     0.87880
C217        C  0.03968829  0.51601184  0.55221907     0.87930
H218        H  0.01353304  0.55890696  0.43710759    -0.06230
O219        O  0.98145990  0.49882820  0.43319278    -0.75260
Mg220      Mg  0.00371236  0.56653103  0.52930498     1.58000
H221        H  0.93915430  0.48935325  0.44116591    -0.06250
C222        C  0.89774508  0.49183471  0.55701983     0.92920
O223        O  0.97201847  0.53963818  0.59825400    -0.82490
C224        C  0.99015581  0.56031730  0.60127173     0.92980
O225        O  0.96388046  0.40143047  0.47243337    -0.82470
Mg226      Mg  0.03134043  0.49767448  0.43393089     1.58180
O227        O  0.91941470  0.50600233  0.56702949    -0.80810
O228        O  0.10077001  0.52710625  0.46281759    -0.82500
O229        O  0.53429128  0.97143465  0.46689077    -0.88090
C230        C  0.44910565  0.96249357  0.48465775     0.87940
Mg231      Mg  0.56585682  0.97216071  0.50070914     1.58150
O232        O  0.46928976  0.03309522  0.46486721    -0.87820
O233        O  0.51915262  0.00024900  0.43183384    -0.75150
C234        C  0.51116772  0.06238857  0.60000775     0.92990
O235        O  0.50318746  0.93562206  0.51789311    -0.74960
O236        O  0.52798193  0.04040622  0.59844129    -0.82470
Mg237      Mg  0.50357710  0.93646460  0.46774286     1.57960
C238        C  0.44215215  0.10480686  0.50779982     0.92920
O239        O  0.50443136  0.93391418  0.41691004    -0.80730
H240        H  0.48796790  0.05959526  0.43588306    -0.06070
C241        C  0.46181743  0.01846178  0.55121299     0.87850
O242        O  0.56684336  0.02207431  0.49970350    -0.75240
O243        O  0.46962008  0.96788813  0.46809413    -0.88000
O244        O  0.43113967  0.08240058  0.49568393    -0.80810
C245        C  0.39722076  0.01103352  0.44235129     0.93030
C246        C  0.49002973  0.94435899  0.39546775     0.92880
Mg247      Mg  0.49864653  0.06850338  0.52775194     1.57950
O248        O  0.49850938  0.07308459  0.57771086    -0.80740
O249        O  0.49881231  0.06830267  0.47784863    -0.74980
O250        O  0.41891757  0.99736894  0.43174295    -0.80820
O251        O  0.53814908  0.90151015  0.47073995    -0.82530
O252        O  0.58147760  0.00672129  0.56650879    -0.80850
C253        C  0.48498584  0.05403385  0.45858131     0.87320
O254        O  0.53197302  0.03667153  0.52879524    -0.87990
O255        O  0.46735424  0.03389618  0.52983608    -0.88100
O256        O  0.48153265  0.00487115  0.56505800    -0.75150
Mg257      Mg  0.46919251  0.99900798  0.43366244     1.57970
O258        O  0.40024729  0.02921198  0.46302422    -0.82530
H259        H  0.56166170  0.99094970  0.43931674    -0.06250
O260        O  0.53144536  0.97150579  0.53202948    -0.87800
H261        H  0.51278778  0.94414279  0.56023928    -0.06080
H262        H  0.55915467  0.06448118  0.50937636    -0.06250
C263        C  0.51607342  0.95012509  0.53770076     0.87300
C264        C  0.53934192  0.98727890  0.44567630     0.87880
C265        C  0.55302176  0.04203253  0.51294054     0.87930
H266        H  0.43938432  0.01543763  0.55750038    -0.06230
O267        O  0.43531006  0.98246580  0.49795879    -0.75260
Mg268      Mg  0.53124905  0.00563517  0.56365594     1.58000
H269        H  0.44338260  0.94002606  0.48871298    -0.06250
C270        C  0.55947513  0.89985288  0.48839304     0.92920
O271        O  0.60026048  0.97492736  0.53527538    -0.82490
C272        C  0.60320370  0.99288735  0.55618637     0.92980
O273        O  0.47145921  0.96456810  0.39911598    -0.82470
Mg274      Mg  0.43540386  0.03249668  0.49668162     1.58180
O275        O  0.56961885  0.92212066  0.50151441    -0.80810
O276        O  0.46454383  0.10345978  0.52404276    -0.82500
C277        C  0.62437337  0.64719593  0.60311939     0.03390
C278        C  0.60319683  0.64689598  0.62511416    -0.12760
C279        C  0.60283321  0.62453296  0.64593632     0.00890
C280        C  0.62391175  0.60246546  0.64487432    -0.11290
C281        C  0.64548318  0.60273549  0.62327554     0.03380
C282        C  0.64564222  0.62518434  0.60247650    -0.10710
H283        H  0.58677777  0.66382229  0.62579664     0.08970
H284        H  0.62371783  0.58527339  0.66103962     0.06500
H285        H  0.66221806  0.62545900  0.58573138     0.06350
C286        C  0.49691052  0.60864872  0.78315843     0.03390
C287        C  0.51876889  0.60915577  0.76181350    -0.12760
C288        C  0.51344922  0.62227205  0.73454934     0.00890
C289        C  0.48635715  0.63558182  0.72917989    -0.11290
C290        C  0.46484455  0.63550513  0.75074994     0.03380
C291        C  0.47028187  0.62217714  0.77748301    -0.10710
H292        H  0.53956788  0.59892961  0.76616027     0.08970
H293        H  0.48218884  0.64619862  0.70850777     0.06500
H294        H  0.45367208  0.62270136  0.79422595     0.06350
C295        C  0.63959485  0.75258553  0.46582205     0.03390
C296        C  0.63906945  0.73191702  0.48820752    -0.12760
C297        C  0.62464675  0.73801087  0.51464969     0.00890
C298        C  0.61103940  0.76546104  0.51815613    -0.11290
C299        C  0.61262270  0.78656288  0.49594998     0.03380
C300        C  0.62613235  0.77944039  0.46969601    -0.10710
H301        H  0.65016904  0.71133156  0.48513988     0.08970
H302        H  0.59944243  0.77050684  0.53803295     0.06500
H303        H  0.62661098  0.79519311  0.45209761     0.06350
C304        C  0.78465017  0.49774621  0.61099274     0.03390
C305        C  0.78012544  0.47219248  0.62666703    -0.12760
C306        C  0.75311288  0.46574129  0.63898026     0.00890
C307        C  0.73104219  0.48703146  0.63800398    -0.11290
C308        C  0.73605793  0.51424304  0.62444657     0.03380
C309        C  0.76280027  0.51898731  0.61015175    -0.10710
H310        H  0.79760507  0.45636362  0.62787207     0.08970
H311        H  0.71001643  0.48244244  0.64747382     0.06500
H312        H  0.76630352  0.53871758  0.59773767     0.06350
O313        O  0.47948269  0.49618458  0.94935301    -0.88090
C314        C  0.49107959  0.56714453  0.00051032     0.87940
Mg315      Mg  0.45435561  0.45966465  0.96263575     1.58150
O316        O  0.55133203  0.52102601  0.99524974    -0.87820
O317        O  0.52382236  0.50539027  0.93453889    -0.75150
C318        C  0.49816357  0.43374212  0.09804974     0.92990
O319        O  0.43560562  0.52421629  0.99557552    -0.74960
O320        O  0.47616840  0.42945915  0.08176194    -0.82470
Mg321      Mg  0.45970245  0.53815132  0.95400710     1.57960
C322        C  0.59877141  0.49619778  0.06575387     0.92920
O323        O  0.48061351  0.55398287  0.91133792    -0.80730
H324        H  0.58096601  0.50059076  0.97081782    -0.06070
C325        C  0.50074304  0.51014150  0.06650456     0.87850
O326        O  0.49568644  0.43517632  0.97621710    -0.75240
O327        O  0.49630020  0.55154552  0.97914301    -0.88000
O328        O  0.58952473  0.51889812  0.05268739    -0.80810
C329        C  0.56860967  0.59713307  0.00291996     0.93030
C330        C  0.50312912  0.56729507  0.90209398     0.92880
Mg331      Mg  0.54134787  0.46230627  0.04576026     1.57950
O332        O  0.52073308  0.44669279  0.08848624    -0.80740
O333        O  0.56517354  0.47613420  0.00401627    -0.74980
O334        O  0.55454752  0.58935369  0.98022532    -0.80820
O335        O  0.41919791  0.52505655  0.92894381    -0.82530
O336        O  0.44700707  0.41165642  0.02015517    -0.80850
C337        C  0.56662026  0.49961354  0.98943023     0.87320
O338        O  0.50469208  0.44931422  0.02098005    -0.87990
O339        O  0.52172668  0.50436940  0.05067507    -0.88100
O340        O  0.47719834  0.49571779  0.06531857    -0.75150
Mg341      Mg  0.53803349  0.54671189  0.95901277     1.57970
O342        O  0.57276115  0.58025536  0.02443916    -0.82530
H343        H  0.49914587  0.47232774  0.91868693    -0.06250
O344        O  0.44971259  0.47945954  0.00465187    -0.87800
H345        H  0.41962278  0.49972785  0.02865601    -0.06080
H346        H  0.52847870  0.41885430  0.00095311    -0.06250
C347        C  0.43417686  0.50076538  0.01021686     0.87300
C348        C  0.50043986  0.49070064  0.93340166     0.87880
C349        C  0.51016536  0.43360492  0.99977173     0.87930
H350        H  0.50213923  0.52860829  0.08109064    -0.06230
O351        O  0.50590578  0.56549112  0.02387214    -0.75260
Mg352      Mg  0.46301802  0.45427048  0.04114975     1.58000
H353        H  0.47283001  0.58198876  0.99959811    -0.06250
C354        C  0.40270857  0.50340015  0.93393159     0.92920
O355        O  0.42958661  0.41912964  0.97558033    -0.82490
C356        C  0.43387371  0.40256504  0.99737498     0.92980
O357        O  0.52490655  0.57183780  0.91861071    -0.82470
Mg358      Mg  0.54716157  0.54051405  0.03737475     1.58180
O359        O  0.41181149  0.48078658  0.94720890    -0.80810
O360        O  0.58214315  0.47462550  0.07037661    -0.82500
O361        O  0.47961765  0.50410075  0.55147506    -0.88090
C362        C  0.49170543  0.43294874  0.50084602     0.87940
Mg363      Mg  0.45440378  0.54045581  0.53752388     1.58150
O364        O  0.55211439  0.47909118  0.50596707    -0.87820
O365        O  0.52403245  0.49518286  0.56647626    -0.75150
C366        C  0.49885669  0.56614658  0.40246660     0.92990
O367        O  0.43640389  0.47553674  0.50487933    -0.74960
O368        O  0.47642881  0.57015980  0.41817166    -0.82470
Mg369      Mg  0.46016408  0.46200428  0.54689549     1.57960
C370        C  0.59860760  0.50269107  0.43469117     0.92920
O371        O  0.48077852  0.44620218  0.59012324    -0.80730
H372        H  0.58186791  0.49960497  0.53029492    -0.06070
C373        C  0.50163564  0.48965869  0.43412289     0.87850
O374        O  0.49574813  0.56498268  0.52427412    -0.75240
O375        O  0.49704746  0.44851541  0.52221455    -0.88000
O376        O  0.59024927  0.47998572  0.44817753    -0.80810
C377        C  0.56981609  0.40313481  0.49909357     0.93030
C378        C  0.50346158  0.43259539  0.59860890     0.92880
Mg379      Mg  0.54181884  0.53755114  0.45525815     1.57950
O380        O  0.52127004  0.55337134  0.41262167    -0.80740
O381        O  0.56580633  0.52393822  0.49704727    -0.74980
O382        O  0.55654173  0.41143289  0.52200813    -0.80820
O383        O  0.41917025  0.47516741  0.57108078    -0.82530
O384        O  0.44687033  0.58758571  0.47943410    -0.80850
C385        C  0.56741097  0.50051086  0.51168538     0.87320
O386        O  0.50505928  0.55073546  0.47963303    -0.87990
O387        O  0.52233739  0.49549655  0.45035707    -0.88100
O388        O  0.47799932  0.50394740  0.43494393    -0.75150
Mg389      Mg  0.53881655  0.45383260  0.54239225     1.57970
O390        O  0.57258149  0.41922972  0.47680765    -0.82530
H391        H  0.49915950  0.52817502  0.58211861    -0.06250
O392        O  0.45029746  0.52026531  0.49553384    -0.87800
H393        H  0.42057035  0.49959136  0.47131652    -0.06080
H394        H  0.52860149  0.58130748  0.49981835    -0.06250
C395        C  0.43496307  0.49882201  0.48997499     0.87300
C396        C  0.50055548  0.50975455  0.56747479     0.87880
C397        C  0.51034964  0.56652712  0.50085402     0.87930
H398        H  0.50335108  0.47123549  0.41952007    -0.06230
O399        O  0.50630399  0.43467538  0.47743323    -0.75260
Mg400      Mg  0.46345851  0.54529877  0.45891752     1.58000
H401        H  0.47344191  0.41817494  0.50176375    -0.06250
C402        C  0.40255916  0.49670140  0.56567628     0.92920
O403        O  0.42952963  0.58089885  0.52402294    -0.82490
C404        C  0.43377873  0.59709162  0.50193967     0.92980
O405        O  0.52541311  0.42861789  0.58231515    -0.82470
Mg406      Mg  0.54758230  0.45922176  0.46385792     1.58180
O407        O  0.41176226  0.51928198  0.55247464    -0.80810
O408        O  0.58221258  0.52459006  0.43069056    -0.82500
O409        O  0.00560109  0.05200073  0.97730012    -0.88090
C410        C  0.93326634  0.00288935  0.98865875     0.87940
Mg411      Mg  0.04144030  0.03749446  0.95168524     1.58150
O412        O  0.97909790  0.00508110  0.04938723    -0.87820
O413        O  0.99762806  0.06539868  0.02255085    -0.75150
C414        C  0.06361822  0.90145767  0.99439408     0.92990
O415        O  0.97535909  0.00709840  0.93300472    -0.74960
O416        O  0.06653150  0.91729483  0.97191902    -0.82470
Mg417      Mg  0.96322557  0.04866408  0.95797092     1.57960
C418        C  0.00101606  0.93230017  0.09507243     0.92920
O419        O  0.94864647  0.09169201  0.97928795    -0.80730
H420        H  0.99995932  0.02805871  0.07998148    -0.06070
C421        C  0.98715662  0.93449362  0.99737925     0.87850
O422        O  0.06528895  0.02225414  0.99300265    -0.75240
O423        O  0.94963332  0.02351309  0.99437197    -0.88000
O424        O  0.97860371  0.94650087  0.08675055    -0.80810
C425        C  0.90200841  0.00034272  0.06479686     0.93030
C426        C  0.93606610  0.10049471  0.00238665     0.92880
Mg427      Mg  0.03591268  0.95312838  0.03837409     1.57950
O428        O  0.05133400  0.91046856  0.01753653    -0.80740
O429        O  0.02347415  0.99461578  0.06328444    -0.74980
O430        O  0.91218824  0.02284613  0.05216732    -0.80820
O431        O  0.97655704  0.07339806  0.91777478    -0.82530
O432        O  0.08636517  0.97817136  0.94404538    -0.80850
C433        C  0.00048212  0.00982107  0.06506344     0.87320
O434        O  0.04928883  0.97815252  0.00185884    -0.87990
O435        O  0.99363707  0.94950401  0.01884340    -0.88100
O436        O  0.00119445  0.93600211  0.97360777    -0.75150
Mg437      Mg  0.95542994  0.04260686  0.03659145     1.57970
O438        O  0.91778215  0.97800080  0.06933918    -0.82530
H439        H  0.03088715  0.08077555  0.99801503    -0.06250
O440        O  0.01976882  0.99642251  0.94676201    -0.87800
H441        H  0.99869687  0.97357901  0.91619902    -0.06080
H442        H  0.08048754  0.99683799  0.02583436    -0.06250
C443        C  0.99829895  0.99180193  0.93114649     0.87300
C444        C  0.01196146  0.06686119  0.99892374     0.87880
C445        C  0.06581772  0.99866967  0.00747084     0.87930
H446        H  0.96829616  0.92050466  0.99852704    -0.06230
O447        O  0.93394916  0.97924133  0.00303145    -0.75260
Mg448      Mg  0.04326669  0.95880148  0.95964141     1.58000
H449        H  0.91859829  0.00468994  0.97028408    -0.06250
C450        C  0.99810727  0.06894735  0.90107568     0.92920
O451        O  0.08177161  0.02302133  0.92674773    -0.82490
C452        C  0.09709467  0.00035382  0.93140009     0.92980
O453        O  0.93212935  0.08415589  0.02435523    -0.82470
Mg454      Mg  0.95784189  0.96388465  0.04431748     1.58180
O455        O  0.02065641  0.05485463  0.90913174    -0.80810
O456        O  0.02261198  0.92809081  0.07836351    -0.82500
C457        C  0.78276241  0.99667160  0.39301857     0.03390
C458        C  0.77791795  0.97053894  0.37827676    -0.12760
C459        C  0.75088707  0.96451835  0.36578787     0.00890
C460        C  0.72835484  0.98499018  0.36788266    -0.11290
C461        C  0.73292662  0.01137312  0.38282304     0.03380
C462        C  0.76019966  0.01707661  0.39556641    -0.10710
H463        H  0.79546167  0.95487043  0.37621463     0.08970
H464        H  0.70759493  0.98066612  0.35754618     0.06500
H465        H  0.76407296  0.03757467  0.40661170     0.06350
C466        C  0.60396781  0.12447766  0.35402863     0.03390
C467        C  0.62163356  0.09996135  0.36003416    -0.12760
C468        C  0.64448403  0.10126851  0.38034602     0.00890
C469        C  0.64660818  0.12531927  0.39891989    -0.11290
C470        C  0.62768154  0.14903742  0.39560603     0.03380
C471        C  0.60829516  0.14936750  0.37181335    -0.10710
H472        H  0.61812032  0.07936471  0.34942293     0.08970
H473        H  0.66296123  0.12549759  0.41594780     0.06500
H474        H  0.59654033  0.16934152  0.36782147     0.06350
C475        C  0.46265138  0.13284904  0.24498216     0.03390
C476        C  0.48320686  0.13403246  0.26778930    -0.12760
C477        C  0.51225445  0.12446626  0.26329207     0.00890
C478        C  0.51959927  0.11344383  0.23540509    -0.11290
C479        C  0.49840192  0.10990634  0.21386870     0.03380
C480        C  0.47014514  0.11899540  0.21898024    -0.10710
H481        H  0.47643531  0.14269523  0.28853442     0.08970
H482        H  0.54175402  0.10763580  0.23006575     0.06500
H483        H  0.45416532  0.11685566  0.20167028     0.06350
C484        C  0.63757557  0.25114939  0.53625103     0.03390
C485        C  0.62572939  0.27863805  0.53068394    -0.12760
C486        C  0.61635414  0.28663983  0.50278541     0.00890
C487        C  0.61827095  0.26620408  0.48005912    -0.11290
C488        C  0.62938837  0.23816427  0.48535593     0.03380
C489        C  0.63926931  0.23075774  0.51346370    -0.10710
H490        H  0.62428724  0.29427705  0.54833147     0.08970
H491        H  0.61149570  0.27206784  0.45821997     0.06500
H492        H  0.64787451  0.20918523  0.51759202     0.06350
C493        C  0.24506780  0.03568826  0.63218572     0.03390
C494        C  0.26746204  0.01490555  0.63340394    -0.12760
C495        C  0.26458027  0.98834986  0.61836271     0.00890
C496        C  0.23892432  0.98238672  0.60274172    -0.11290
C497        C  0.21690120  0.00340729  0.60111217     0.03380
C498        C  0.22059964  0.03019256  0.61491684    -0.10710
H499        H  0.28663265  0.01899238  0.64654660     0.08970
H500        H  0.23597398  0.96141922  0.59231012     0.06500
H501        H  0.20340159  0.04631382  0.61354369     0.06350
C502        C  0.35174354  0.89768431  0.62540040     0.03390
C503        C  0.35239752  0.87666765  0.60317530    -0.12760
C504        C  0.37200896  0.85315035  0.60430252     0.00890
C505        C  0.39249659  0.85219970  0.62714285    -0.11290
C506        C  0.39289805  0.87374391  0.64886576     0.03380
C507        C  0.37212057  0.89613540  0.64818975    -0.10710
H508        H  0.33738332  0.87864178  0.58507508     0.08970
H509        H  0.40812778  0.83457323  0.62824024     0.06500
H510        H  0.37235002  0.91281429  0.66490889     0.06350
C511        C  0.50131047  0.88935487  0.78467887     0.03390
C512        C  0.52818951  0.87637243  0.77954812    -0.12760
C513        C  0.53382780  0.86242171  0.75315985     0.00890
C514        C  0.51204503  0.86093671  0.73175373    -0.11290
C515        C  0.48518132  0.87527456  0.73588910     0.03380
C516        C  0.48010254  0.88953437  0.76269776    -0.10710
H517        H  0.54464532  0.87653572  0.79652785     0.08970
H518        H  0.51611603  0.84857835  0.71208925     0.06500
H519        H  0.45958074  0.90037645  0.76673266     0.06350
C520        C  0.38555838  0.71329491  0.49981542     0.03390
C521        C  0.38605274  0.73519653  0.52118381    -0.12760
C522        C  0.37250361  0.76221092  0.51586575     0.00890
C523        C  0.35838892  0.76699084  0.48900726    -0.11290
C524        C  0.35794819  0.74502976  0.46777545     0.03380
C525        C  0.37133239  0.71840078  0.47337966    -0.10710
H526        H  0.39710230  0.73135109  0.54170250     0.08970
H527        H  0.34820309  0.78779328  0.48451072     0.06500
H528        H  0.37104055  0.70159929  0.45674483     0.06350
O529        O  0.51796880  0.00624666  0.94787522    -0.88090
C530        C  0.51128161  0.93462458  0.99881583     0.87940
Mg531      Mg  0.54222354  0.04354185  0.96064224     1.58150
O532        O  0.44866323  0.97782119  0.99602784    -0.87820
O533        O  0.47351884  0.99507319  0.93451048    -0.75150
C534        C  0.50252037  0.06697997  0.09692332     0.92990
O535        O  0.56443361  0.97960457  0.99261654    -0.74960
O536        O  0.52292376  0.07325925  0.07942908    -0.82470
Mg537      Mg  0.53949716  0.96522482  0.95160341     1.57960
C538        C  0.40363442  0.99987631  0.06906982     0.92920
O539        O  0.51786785  0.94933187  0.90918603    -0.80730
H540        H  0.41713295  0.99715349  0.97299194    -0.06070
C541        C  0.50167930  0.99059769  0.06553328     0.87850
O542        O  0.50025175  0.06621061  0.97552359    -0.75240
O543        O  0.50452423  0.95021355  0.97788028    -0.88000
O544        O  0.41253176  0.97757354  0.05507758    -0.80810
C545        C  0.43596402  0.90050744  0.00366828     0.93030
C546        C  0.49591322  0.93432408  0.90131347     0.92880
Mg547      Mg  0.45847223  0.03642860  0.04675455     1.57950
O548        O  0.48041473  0.05217485  0.08908327    -0.80740
O549        O  0.43329497  0.02199465  0.00584663    -0.74980
O550        O  0.44851028  0.90978620  0.98070405    -0.80820
O551        O  0.57841687  0.97999953  0.92559415    -0.82530
O552        O  0.54912462  0.09154702  0.01794339    -0.80850
C553        C  0.43223253  0.99860103  0.99104060     0.87320
O554        O  0.49326640  0.05133090  0.02037605    -0.87990
O555        O  0.47987940  0.99531490  0.05039337    -0.88100
O556        O  0.52433828  0.00632871  0.06376801    -0.75150
Mg557      Mg  0.46204074  0.95301026  0.95918868     1.57970
O558        O  0.43154900  0.91700803  0.02546709    -0.82530
H559        H  0.49602473  0.02934346  0.91812355    -0.06250
O560        O  0.54883638  0.02369826  0.00234729    -0.87800
H561        H  0.58037713  0.00452794  0.02550066    -0.06080
H562        H  0.46740935  0.08070640  0.00121731    -0.06250
C563        C  0.56535202  0.00300593  0.00739951     0.87300
C564        C  0.49614743  0.01086097  0.93272247     0.87880
C565        C  0.48636917  0.06686482  0.99943630     0.87930
H566        H  0.50175312  0.97208691  0.08008220    -0.06230
O567        O  0.49727678  0.93527752  0.02265657    -0.75260
Mg568      Mg  0.53574083  0.04839575  0.03910826     1.58000
H569        H  0.53017330  0.92069096  0.99708304    -0.06250
C570        C  0.59459883  0.00189912  0.93050387     0.92920
O571        O  0.56583761  0.08485488  0.97308363    -0.82490
C572        C  0.56148667  0.10113664  0.99505675     0.92980
O573        O  0.47532781  0.92814782  0.91869707    -0.82470
Mg574      Mg  0.45545087  0.95811558  0.03782491     1.58180
O575        O  0.58539930  0.02411138  0.94439211    -0.80810
O576        O  0.41982087  0.02193222  0.07299765    -0.82500
C577        C  0.60331511  0.21880419  0.00305828     0.03390
C578        C  0.60518585  0.24084856  0.98208317    -0.12760
C579        C  0.62302905  0.26539823  0.98683178     0.00890
C580        C  0.63984444  0.26673872  0.01262624    -0.11290
C581        C  0.63781807  0.24462869  0.03370031     0.03380
C582        C  0.61883608  0.22136736  0.02903447    -0.10710
H583        H  0.59275740  0.23875291  0.96211147     0.08970
H584        H  0.65508193  0.28438229  0.01598638     0.06500
H585        H  0.61716736  0.20427196  0.04523562     0.06350
C586        C  0.62611449  0.35391248  0.89613875     0.03390
C587        C  0.60443199  0.35440081  0.87450582    -0.12760
C588        C  0.60456613  0.37577723  0.85260098     0.00890
C589        C  0.62706287  0.39647778  0.85222912    -0.11290
C590        C  0.64870486  0.39643831  0.87388022     0.03380
C591        C  0.64787685  0.37533863  0.89597760    -0.10710
H592        H  0.58717791  0.33835499  0.87498159     0.08970
H593        H  0.62770557  0.41272888  0.83513767     0.06500
H594        H  0.66459294  0.37517907  0.91266664     0.06350
C595        C  0.46518870  0.36242757  0.74890780     0.03390
C596        C  0.47037617  0.37512953  0.72181208    -0.12760
C597        C  0.49755308  0.38687685  0.71506935     0.00890
C598        C  0.51937280  0.38752549  0.73653272    -0.11290
C599        C  0.51432697  0.37505166  0.76407202     0.03380
C600        C  0.48725614  0.36212267  0.77005999    -0.10710
H601        H  0.45330577  0.37505154  0.70545460     0.08970
H602        H  0.54040715  0.39688500  0.73159031     0.06500
H603        H  0.48339783  0.35197667  0.79100543     0.06350
C604        C  0.75266634  0.53406425  0.85828541     0.03390
C605        C  0.73195259  0.51169810  0.85817382    -0.12760
C606        C  0.73751453  0.48568326  0.87340765     0.00890
C607        C  0.76382264  0.48232948  0.88888235    -0.11290
C608        C  0.78448562  0.50484989  0.88890855     0.03380
C609        C  0.77897947  0.53006812  0.87284911    -0.10710
H610        H  0.71143857  0.51473468  0.84691593     0.08970
H611        H  0.76786103  0.46264896  0.90125082     0.06500
H612        H  0.79511241  0.54728474  0.87234297     0.06350
C613        C  0.39592992  0.78203646  0.99800134     0.03390
C614        C  0.39391280  0.76028862  0.01926862    -0.12760
C615        C  0.37783072  0.73486909  0.01362527     0.00890
C616        C  0.36304867  0.73172819  0.98689627    -0.11290
C617        C  0.36509827  0.75356744  0.96555149     0.03380
C618        C  0.38206742  0.77821911  0.97122332    -0.10710
H619        H  0.40460495  0.76318863  0.04013888     0.08970
H620        H  0.34978856  0.71263320  0.98299602     0.06500
H621        H  0.38366469  0.79526660  0.95495886     0.06350
C622        C  0.53476570  0.63902544  0.25291525     0.03390
C623        C  0.52854807  0.62641913  0.27983581    -0.12760
C624        C  0.50208809  0.61236096  0.28498478     0.00890
C625        C  0.48101439  0.61173902  0.26280040    -0.11290
C626        C  0.48645391  0.62544669  0.23593080     0.03380
C627        C  0.51346319  0.63897582  0.23097663    -0.10710
H628        H  0.54479564  0.62731942  0.29699005     0.08970
H629        H  0.46057392  0.60058545  0.26628252     0.06500
H630        H  0.51798756  0.64891817  0.21007064     0.06350
C631        C  0.35319588  0.60358057  0.12534937     0.03390
C632        C  0.35370008  0.62476897  0.10340905    -0.12760
C633        C  0.37599984  0.64559646  0.10259077     0.00890
C634        C  0.39761858  0.64522059  0.12429911    -0.11290
C635        C  0.39748484  0.62392388  0.14628487     0.03380
C636        C  0.37497194  0.60326032  0.14675578    -0.10710
H637        H  0.33696319  0.62475257  0.08673899     0.08970
H638        H  0.41467664  0.66147458  0.12400360     0.06500
H639        H  0.37421113  0.58704206  0.16387283     0.06350
C640        C  0.24859564  0.46554914  0.13686503     0.03390
C641        C  0.27000394  0.48721923  0.13719379    -0.12760
C642        C  0.26426957  0.51470062  0.12484067     0.00890
C643        C  0.23658848  0.52047473  0.11296494    -0.11290
C644        C  0.21507804  0.49881250  0.11310338     0.03380
C645        C  0.22132647  0.47156128  0.12499679    -0.10710
H646        H  0.29103036  0.48268519  0.14688623     0.08970
H647        H  0.23190135  0.54157739  0.10351130     0.06500
H648        H  0.20474862  0.45476596  0.12500166     0.06350
O649        O  0.03057424  0.53463922  0.03345812    -0.88090
C650        C  0.01605067  0.44834841  0.04124537     0.87940
Mg651      Mg  0.99651657  0.56563391  0.03328359     1.58150
O652        O  0.03440900  0.47054834  0.97075260    -0.87820
O653        O  0.06579074  0.52162585  0.00404628    -0.75150
C654        C  0.89822350  0.51112591  0.94242452     0.92990
O655        O  0.97979672  0.50147631  0.06774123    -0.74960
O656        O  0.90128527  0.52932498  0.96310479    -0.82470
Mg657      Mg  0.02969345  0.50293222  0.06760099     1.57960
C658        C  0.99088447  0.44185541  0.89942166     0.92920
O659        O  0.07928097  0.50407555  0.07206958    -0.80730
H660        H  0.06238979  0.48946542  0.94339473    -0.06070
C661        C  0.94807132  0.46121560  0.98618605     0.87850
O662        O  0.99790613  0.56718967  0.98312802    -0.75240
O663        O  0.03122222  0.46984925  0.03567641    -0.88000
O664        O  0.00416829  0.43161505  0.92157333    -0.80810
C665        C  0.06088458  0.39971442  0.99202551     0.93030
C666        C  0.10177912  0.49182782  0.06156918     0.92880
Mg667      Mg  0.97024397  0.49789339  0.93600541     1.57950
O668        O  0.91979571  0.49670529  0.93252321    -0.80740
O669        O  0.02009755  0.49899620  0.93513086    -0.74980
O670        O  0.07056800  0.42199907  0.00541573    -0.80820
O671        O  0.02646779  0.53673808  0.10249472    -0.82530
O672        O  0.93270213  0.58197614  0.99698809    -0.80850
C673        C  0.03993641  0.48602630  0.94941304     0.87320
O674        O  0.96988996  0.53165604  0.96783461    -0.87990
O675        O  0.96945539  0.46662865  0.97075669    -0.88100
O676        O  0.93373687  0.48120298  0.99892701    -0.75150
Mg677      Mg  0.06596748  0.47179424  0.00463381     1.57970
O678        O  0.03930276  0.40143393  0.97464120    -0.82530
H679        H  0.05702156  0.56357496  0.01468432    -0.06250
O680        O  0.96577082  0.53098036  0.03288550    -0.87800
H681        H  0.93754131  0.51090774  0.05914718    -0.06080
H682        H  0.98941920  0.55922342  0.94042527    -0.06250
C683        C  0.96004946  0.51473078  0.05358858     0.87300
C684        C  0.05150362  0.54089970  0.01777134     0.87880
C685        C  0.98553574  0.55297463  0.96279963     0.87930
H686        H  0.94190615  0.43876092  0.98961694    -0.06230
O687        O  0.00291245  0.43420404  0.02143382    -0.75260
Mg688      Mg  0.93502623  0.53135398  0.99829597     1.58000
H689        H  0.01292653  0.44214351  0.06375441    -0.06250
C690        C  0.00903993  0.55803006  0.10525063     0.92920
O691        O  0.96177846  0.59961731  0.03135310    -0.82490
C692        C  0.94250830  0.60334405  0.01187868     0.92980
O693        O  0.10067296  0.47552325  0.03918900    -0.82470
Mg694      Mg  0.00379133  0.43537365  0.97158600     1.58180
O695        O  0.99529764  0.56844948  0.08347733    -0.80810
O696        O  0.97365568  0.46347336  0.90106528    -0.82500
C697        C  0.89518321  0.12674275  0.64799111     0.03390
C698        C  0.87474623  0.10415815  0.64727895    -0.12760
C699        C  0.85260069  0.10408082  0.62628590     0.00890
C700        C  0.85159206  0.12618615  0.60518935    -0.11290
C701        C  0.87184137  0.14916703  0.60560715     0.03380
C702        C  0.89349768  0.14929496  0.62740574    -0.10710
H703        H  0.87579710  0.08690606  0.66335414     0.08970
H704        H  0.83525819  0.12506060  0.58819415     0.06500
H705        H  0.90927404  0.16678197  0.62826473     0.06350
C706        C  0.03635197  0.13529495  0.74893664     0.03390
C707        C  0.03116700  0.12280363  0.77613720    -0.12760
C708        C  0.00356630  0.11274177  0.78374201     0.00890
C709        C  0.98141870  0.11268471  0.76256266    -0.11290
C710        C  0.98688066  0.12358099  0.73439092     0.03380
C711        C  0.01435578  0.13529657  0.72777862    -0.10710
H712        H  0.04853492  0.12249709  0.79216830     0.08970
H713        H  0.95996818  0.10467693  0.76804380     0.06500
H714        H  0.01819115  0.14528762  0.70675287     0.06350
C715        C  0.71736557  0.99788799  0.60679530     0.03390
C716        C  0.72070764  0.97182208  0.62188094    -0.12760
C717        C  0.74521960  0.96670434  0.63909116     0.00890
C718        C  0.76754050  0.98751709  0.64001234    -0.11290
C719        C  0.76478077  0.01377048  0.62428065     0.03380
C720        C  0.73924883  0.01900985  0.60804140    -0.10710
H721        H  0.70367031  0.95553203  0.62067130     0.08970
H722        H  0.78653937  0.98363779  0.65346195     0.06500
H723        H  0.73659040  0.03920764  0.59614149     0.06350
C724        C  0.86044043  0.25460478  0.46655414     0.03390
C725        C  0.87408177  0.28110703  0.47230354    -0.12760
C726        C  0.88768685  0.28628560  0.49897300     0.00890
C727        C  0.88716693  0.26489709  0.52070418    -0.11290
C728        C  0.87294085  0.23823679  0.51555053     0.03380
C729        C  0.85924035  0.23329834  0.48846894    -0.10710
H730        H  0.87471250  0.29773804  0.45553198     0.08970
H731        H  0.89811482  0.26876634  0.54128061     0.06500
H732        H  0.84854312  0.21271959  0.48419944     0.06350
C733        C  0.96680037  0.13722424  0.25120552     0.03390
C734        C  0.98779720  0.13588081  0.22911491    -0.12760
C735        C  0.01344041  0.11949792  0.23325927     0.00890
C736        C  0.01716581  0.10379087  0.25944906    -0.11290
C737        C  0.99602209  0.10508000  0.28140354     0.03380
C738        C  0.97122436  0.12203099  0.27713051    -0.10710
H739        H  0.98460091  0.14822645  0.20925495     0.08970
H740        H  0.03642248  0.09060468  0.26278450     0.06500
H741        H  0.95523237  0.12373237  0.29439417     0.06350
C742        C  0.13437762  0.25261762  0.96356579     0.03390
C743        C  0.12417377  0.28031623  0.97037099    -0.12760
C744        C  0.11412453  0.28664620  0.99820600     0.00890
C745        C  0.11567246  0.26551556  0.02016326    -0.11290
C746        C  0.12434707  0.23664104  0.01361278     0.03380
C747        C  0.13370815  0.23064298  0.98477543    -0.10710
H748        H  0.12384203  0.29713775  0.95378542     0.08970
H749        H  0.10986499  0.27191819  0.04202498     0.06500
H750        H  0.14025452  0.20897788  0.97831273     0.06350
C751        C  0.15001819  0.10248039  0.12748889     0.03390
C752        C  0.12643165  0.10006512  0.14646277    -0.12760
C753        C  0.10249242  0.11867859  0.14362545     0.00890
C754        C  0.10174688  0.13892319  0.12066709    -0.11290
C755        C  0.12603628  0.14312868  0.10214078     0.03380
C756        C  0.15060964  0.12522666  0.10706382    -0.10710
H757        H  0.12648739  0.08341865  0.16319516     0.08970
H758        H  0.08215564  0.15160798  0.11806340     0.06500
H759        H  0.17068343  0.12862958  0.09552360     0.06350
C760        C  0.25358923  0.96366463  0.13995210     0.03390
C761        C  0.27997182  0.96842063  0.12579552    -0.12760
C762        C  0.28636488  0.99545071  0.11346807     0.00890
C763        C  0.26600838  0.01814727  0.11535975    -0.11290
C764        C  0.23926393  0.01358087  0.12943538     0.03380
C765        C  0.23319129  0.98630708  0.14195564    -0.10710
H766        H  0.29583108  0.95096121  0.12462931     0.08970
H767        H  0.27077794  0.03909539  0.10564298     0.06500
H768        H  0.21254138  0.98257241  0.15263335     0.06350
O769        O  0.22034284  0.21862370  0.71611664    -0.88090
C770        C  0.23493924  0.20828359  0.80215689     0.87940
Mg771      Mg  0.25493279  0.21874678  0.68563396     1.58150
O772        O  0.21689988  0.27958542  0.78223415    -0.87820
O773        O  0.18549450  0.24805518  0.73002344    -0.75150
C774        C  0.35250232  0.30905733  0.74256706     0.92990
O775        O  0.26997554  0.18234148  0.74865272    -0.74960
O776        O  0.35096826  0.28751872  0.72513722    -0.82470
Mg777      Mg  0.21990681  0.18363198  0.74668686     1.57960
C778        C  0.26063903  0.34964142  0.81244786     0.92920
O779        O  0.16962057  0.18070170  0.74456296    -0.80730
H780        H  0.18867525  0.30715217  0.76384022    -0.06070
C781        C  0.30314991  0.26378546  0.79150312     0.87850
O782        O  0.25410468  0.26880184  0.68464208    -0.75240
O783        O  0.21936998  0.21452405  0.78104039    -0.88000
O784        O  0.24788271  0.32725609  0.82271054    -0.80810
C785        C  0.19057829  0.25700074  0.85238808     0.93030
C786        C  0.14789499  0.19118446  0.75828418     0.92880
Mg787      Mg  0.28046883  0.31438714  0.75506212     1.57950
O788        O  0.33026494  0.31865392  0.75603429    -0.80740
O789        O  0.23080450  0.31522681  0.75381333    -0.74980
O790        O  0.18025183  0.24492382  0.82963177    -0.80820
O791        O  0.22248533  0.14980541  0.71165311    -0.82530
O792        O  0.31982151  0.25416506  0.67117586    -0.80850
C793        C  0.21117920  0.30106245  0.76702681     0.87320
O794        O  0.28166316  0.28308735  0.72096707    -0.87990
O795        O  0.28173179  0.27915885  0.78593756    -0.88100
O796        O  0.31754342  0.25101403  0.77163251    -0.75150
Mg797      Mg  0.18530936  0.24622729  0.77998929     1.57970
O798        O  0.21291047  0.27333663  0.85165623    -0.82530
H799        H  0.19425756  0.23886839  0.68769226    -0.06250
O800        O  0.28529468  0.21804357  0.72087324    -0.87800
H801        H  0.31260885  0.19048565  0.74069492    -0.06080
H802        H  0.26313909  0.31119584  0.69329089    -0.06250
C803        C  0.29028769  0.19667419  0.73654298     0.87300
C804        C  0.19969732  0.23490002  0.71029102     0.87880
C805        C  0.26654955  0.28868406  0.69934674     0.87930
H806        H  0.30916116  0.26026459  0.81403404    -0.06230
O807        O  0.24839705  0.22758547  0.81669627    -0.75260
Mg808      Mg  0.31667310  0.25236846  0.72163983     1.58000
H809        H  0.23813921  0.18560538  0.80765556    -0.06250
C810        C  0.24063683  0.14700672  0.69099762     0.92920
O811        O  0.29030332  0.22084906  0.65241256    -0.82490
C812        C  0.31019232  0.23974011  0.64939943     0.92980
O813        O  0.15091200  0.21219009  0.77600131    -0.82470
Mg814      Mg  0.24783882  0.27743584  0.81732695     1.58180
O815        O  0.25551996  0.16852480  0.68181567    -0.80810
O816        O  0.27682412  0.34858028  0.79004167    -0.82500
O817        O  0.71874661  0.21784788  0.21837978    -0.88090
C818        C  0.80427165  0.23576313  0.21049307     0.87940
Mg819      Mg  0.68672095  0.25118164  0.21788966     1.58150
O820        O  0.78282850  0.21621521  0.28084500    -0.87820
O821        O  0.73358421  0.18284286  0.24736534    -0.75150
C822        C  0.73906620  0.35116954  0.30825193     0.92990
O823        O  0.74994890  0.26888708  0.18277532    -0.74960
O824        O  0.72129584  0.34824143  0.28714641    -0.82470
Mg825      Mg  0.74998090  0.21879904  0.18406052     1.57960
C826        C  0.80865551  0.25989424  0.35275364     0.92920
O827        O  0.74958173  0.16862073  0.18159099    -0.80730
H828        H  0.76418004  0.18743228  0.30759829    -0.06070
C829        C  0.78959121  0.30260345  0.26541665     0.87850
O830        O  0.68480697  0.25021715  0.26793499    -0.75240
O831        O  0.78360015  0.21938642  0.21582732    -0.88000
O832        O  0.81971409  0.24735723  0.33060118    -0.80810
C833        C  0.85525578  0.19347467  0.26066246     0.93030
C834        C  0.76351242  0.14689265  0.19179453     0.92880
Mg835      Mg  0.75289183  0.27932397  0.31519330     1.57950
O836        O  0.75296936  0.32946323  0.31856596    -0.80740
O837        O  0.75313737  0.22940401  0.31581588    -0.74980
O838        O  0.83389712  0.18264359  0.24652192    -0.80820
O839        O  0.71570219  0.22024195  0.14909375    -0.82530
O840        O  0.66944099  0.31571105  0.25278897    -0.80850
C841        C  0.76705897  0.21006361  0.30177682     0.87320
O842        O  0.71964888  0.27916017  0.28298304    -0.87990
O843        O  0.78433576  0.28118679  0.28089985    -0.88100
O844        O  0.76963388  0.31629349  0.25197363    -0.75150
Mg845      Mg  0.78355316  0.18476585  0.24693341     1.57970
O846        O  0.85170700  0.21461765  0.27813503    -0.82530
H847        H  0.69117622  0.19022497  0.23753508    -0.06250
O848        O  0.72072995  0.28274402  0.21790563    -0.87800
H849        H  0.73962168  0.31110429  0.19085090    -0.06080
H850        H  0.69226269  0.25961584  0.31052196    -0.06250
C851        C  0.73649788  0.28855862  0.19686812     0.87300
C852        C  0.71352785  0.19664070  0.23415956     0.87880
C853        C  0.69858203  0.26324501  0.28812986     0.87930
H854        H  0.81193970  0.30921429  0.26239499    -0.06230
O855        O  0.81780379  0.24929221  0.23051566    -0.75260
Mg856      Mg  0.71978252  0.31397262  0.25217194     1.58000
H857        H  0.81033874  0.23947241  0.18804053    -0.06250
C858        C  0.69459222  0.23787161  0.14600531     0.92920
O859        O  0.65178154  0.28532450  0.21956268    -0.82490
C860        C  0.64810129  0.30541844  0.23823683     0.92980
O861        O  0.78183132  0.14996287  0.21239734    -0.82470
Mg862      Mg  0.81654552  0.24823876  0.28051664     1.58180
O863        O  0.68422195  0.25198975  0.16755002    -0.80810
O864        O  0.78678692  0.27674464  0.35069571    -0.82500
C865        C  0.13107486  0.75137683  0.03683566     0.03390
C866        C  0.11486305  0.77660270  0.03120380    -0.12760
C867        C  0.10535010  0.78352930  0.00310322     0.00890
C868        C  0.10868362  0.76288626  0.98081630    -0.11290
C869        C  0.12257346  0.73615736  0.98650819     0.03380
C870        C  0.13483634  0.73100884  0.01421264    -0.10710
H871        H  0.11101269  0.79205657  0.04864840     0.08970
H872        H  0.10132347  0.76779983  0.95892555     0.06500
H873        H  0.14740217  0.71141006  0.01787941     0.06350
C874        C  0.14620284  0.60017517  0.87985127     0.03390
C875        C  0.14840470  0.62375532  0.89906588    -0.12760
C876        C  0.13011278  0.64797788  0.89592787     0.00890
C877        C  0.11065525  0.64882463  0.87222791    -0.11290
C878        C  0.10646537  0.62446697  0.85374965     0.03380
C879        C  0.12386282  0.59963483  0.85901953    -0.10710
H880        H  0.16413686  0.62286300  0.91663180     0.08970
H881        H  0.09865613  0.66875836  0.86877732     0.06500
H882        H  0.12067804  0.57971484  0.84698036     0.06350
C883        C  0.99587645  0.61341585  0.71528796     0.03390
C884        C  0.96990824  0.62773103  0.72103578    -0.12760
C885        C  0.96440380  0.63957404  0.74828313     0.00890
C886        C  0.98529205  0.63706149  0.77041250    -0.11290
C887        C  0.01359377  0.62626703  0.76425261     0.03380
C888        C  0.01837404  0.61433350  0.73600044    -0.10710
H889        H  0.95328140  0.62889952  0.70424842     0.08970
H890        H  0.97906957  0.64377324  0.79202740     0.06500
H891        H  0.03912208  0.60530362  0.72972885     0.06350
C892        C  0.25453021  0.46304546  0.86515671     0.03390
C893        C  0.28148304  0.47063852  0.87706536    -0.12760
C894        C  0.28579468  0.49773600  0.88996114     0.00890
C895        C  0.26292728  0.51780823  0.89107752    -0.11290
C896        C  0.23555593  0.51083073  0.87903282     0.03380
C897        C  0.23160271  0.48331765  0.86588476    -0.10710
H898        H  0.29941874  0.45530474  0.87626704     0.08970
H899        H  0.26641250  0.53870741  0.90147787     0.06500
H900        H  0.21088134  0.47771887  0.85616512     0.06350
O901        O  0.19851672  0.75459263  0.23040939    -0.88090
C902        C  0.24860979  0.68289855  0.23990784     0.87940
Mg903      Mg  0.21258788  0.79087456  0.20531981     1.58150
O904        O  0.24469045  0.72686363  0.30196460    -0.87820
O905        O  0.18447627  0.74492441  0.27503802    -0.75150
C906        C  0.34723116  0.81506599  0.25130749     0.92990
O907        O  0.24376190  0.72631717  0.18542458    -0.74960
O908        O  0.33141705  0.81979495  0.22900147    -0.82470
Mg909      Mg  0.20211098  0.71285140  0.20975967     1.57960
C910        C  0.31636924  0.74826596  0.34943270     0.92920
O911        O  0.15930762  0.69780785  0.23093302    -0.80730
H912        H  0.22097085  0.74627193  0.33285531    -0.06070
C913        C  0.31571323  0.73819962  0.25141805     0.87850
O914        O  0.22669346  0.81494520  0.24700587    -0.75240
O915        O  0.22751190  0.69853854  0.24586909    -0.88000
O916        O  0.30232061  0.72608798  0.34039599    -0.80810
C917        C  0.25092578  0.64968483  0.31595115     0.93030
C918        C  0.15054479  0.68404003  0.25339009     0.92880
Mg919      Mg  0.29544612  0.78486000  0.29337316     1.57950
O920        O  0.33767033  0.80093613  0.27311969    -0.80740
O921        O  0.25402509  0.77103337  0.31740557    -0.74980
O922        O  0.22837002  0.65924281  0.30282918    -0.80820
O923        O  0.17664998  0.72678910  0.16970610    -0.82530
O924        O  0.27057553  0.83865315  0.19934890    -0.80850
C925        C  0.23931682  0.74765775  0.31823267     0.87320
O926        O  0.27061897  0.79927112  0.25684162    -0.87990
O927        O  0.29993244  0.74344085  0.27258977    -0.88100
O928        O  0.31463812  0.75331662  0.22825159    -0.75150
Mg929      Mg  0.20802339  0.70262617  0.28802610     1.57970
O930        O  0.27281882  0.66588214  0.32068941    -0.82530
H931        H  0.16907714  0.77890812  0.25129341    -0.06250
O932        O  0.25412401  0.77039057  0.20071339    -0.87800
H933        H  0.27753460  0.75021104  0.17006042    -0.06080
H934        H  0.25110195  0.83003498  0.28070451    -0.06250
C935        C  0.25912597  0.74932488  0.18463961     0.87300
C936        C  0.18324907  0.76010693  0.25190006     0.87880
C937        C  0.24983869  0.81550724  0.26216863     0.87930
H938        H  0.33017315  0.71962572  0.25229865    -0.06230
O939        O  0.27203145  0.68366623  0.25465653    -0.75260
Mg940      Mg  0.29084430  0.79526023  0.21492009     1.58000
H941        H  0.24741639  0.66882212  0.22102434    -0.06250
C942        C  0.18101888  0.74886540  0.15358128     0.92920
O943        O  0.22686985  0.83044110  0.17982730    -0.82490
C944        C  0.24852953  0.84694453  0.18462388     0.92980
O945        O  0.16739860  0.67864386  0.27469119    -0.82470
Mg946      Mg  0.28624266  0.70660742  0.29689150     1.58180
O947        O  0.19567299  0.77057979  0.16273129    -0.80810
O948        O  0.32074501  0.77037865  0.33334821    -0.82500
C949        C  0.75469949  0.03302270  0.13974530     0.03390
C950        C  0.78015043  0.02805961  0.12404016    -0.12760
C951        C  0.78422847  0.00232403  0.10840896     0.00890
C952        C  0.76206796  0.98128196  0.10800052    -0.11290
C953        C  0.73607744  0.98615154  0.12345544     0.03380
C954        C  0.73243175  0.01218187  0.13927991    -0.10710
H955        H  0.79733439  0.04422802  0.12456151     0.08970
H956        H  0.76513648  0.96114896  0.09607320     0.06500
H957        H  0.71268063  0.01589883  0.15156195     0.06350
C958        C  0.60822487  0.87059356  0.14968523     0.03390
C959        C  0.62768259  0.89413714  0.14786291    -0.12760
C960        C  0.64781305  0.89600336  0.12488910     0.00890
C961        C  0.64778775  0.87442199  0.10311875    -0.11290
C962        C  0.62810837  0.85104633  0.10420044     0.03380
C963        C  0.60912947  0.84892052  0.12803484    -0.10710
H964        H  0.62684625  0.91138629  0.16394708     0.08970
H965        H  0.66313571  0.87583554  0.08530578     0.06500
H966        H  0.59475076  0.83032673  0.12966052     0.06350
C967        C  0.63723471  0.74703212  0.96412648     0.03390
C968        C  0.62526662  0.71981346  0.97021055    -0.12760
C969        C  0.61484644  0.71317504  0.99797218     0.00890
C970        C  0.61505141  0.73475088  0.01968994    -0.11290
C971        C  0.62720083  0.76229810  0.01390561     0.03380
C972        C  0.63866105  0.76820111  0.98611806    -0.10710
H973        H  0.62472101  0.70331860  0.95328022     0.08970
H974        H  0.60660240  0.72990292  0.04116527     0.06500
H975        H  0.64831446  0.78921873  0.98156444     0.06350
C976        C  0.46579170  0.85785329  0.25453814     0.03390
C977        C  0.46988591  0.87703974  0.27769141    -0.12760
C978        C  0.49561930  0.89252337  0.28117992     0.00890
C979        C  0.51779799  0.88936837  0.26042555    -0.11290
C980        C  0.51475612  0.86977970  0.23658488     0.03380
C981        C  0.48871222  0.85324689  0.23477966    -0.10710
H982        H  0.45261903  0.88011637  0.29342906     0.08970
H983        H  0.53701149  0.90272935  0.26277988     0.06500
H984        H  0.48605226  0.83636468  0.21866646     0.06350
C985        C  0.87439917  0.64438895  0.39896083     0.03390
C986        C  0.85309242  0.62256982  0.39854111    -0.12760
C987        C  0.85245956  0.60178197  0.37605378     0.00890
C988        C  0.87368303  0.60295089  0.35405289    -0.11290
C989        C  0.89498908  0.62490318  0.35401840     0.03380
C990        C  0.89530886  0.64534082  0.37681211    -0.10710
H991        H  0.83668246  0.62212304  0.41544567     0.08970
H992        H  0.87358000  0.58676262  0.33687125     0.06500
H993        H  0.91205954  0.66189572  0.37759643     0.06350
C994        C  0.00355965  0.61396839  0.21770082     0.03390
C995        C  0.02821201  0.63088986  0.22303783    -0.12760
C996        C  0.03193965  0.64520357  0.24955786     0.00890
C997        C  0.01004868  0.64383153  0.27070637    -0.11290
C998        C  0.98446745  0.62793098  0.26515004     0.03380
C999        C  0.98133731  0.61291442  0.23856415    -0.10710
H1000       H  0.04535876  0.63185259  0.20686679     0.08970
H1001       H  0.01305865  0.65467569  0.29147462     0.06500
H1002       H  0.96202534  0.60004998  0.23442357     0.06350
C1003       C  0.86203384  0.75486597  0.53404072     0.03390
C1004       C  0.86168030  0.73229398  0.51335133    -0.12760
C1005       C  0.87672343  0.73539593  0.48672998     0.00890
C1006       C  0.89258358  0.76115341  0.48153680    -0.11290
C1007       C  0.89260448  0.78363171  0.50212300     0.03380
C1008       C  0.87807443  0.78003182  0.52843474    -0.10710
H1009       H  0.84887468  0.71295296  0.51747712     0.08970
H1010       H  0.90434838  0.76404524  0.46132968     0.06500
H1011       H  0.87832833  0.79758017  0.54427890     0.06350
C1012       C  0.74595909  0.46453407  0.36194531     0.03390
C1013       C  0.72024384  0.46986160  0.37708682    -0.12760
C1014       C  0.71536726  0.49641979  0.39103204     0.00890
C1015       C  0.73761073  0.51731601  0.39167306    -0.11290
C1016       C  0.76421785  0.51174420  0.37760524     0.03380
C1017       C  0.76824588  0.48536680  0.36247248    -0.10710
H1018       H  0.70322372  0.45351632  0.37692351     0.08970
H1019       H  0.73395716  0.53814332  0.40215455     0.06500
H1020       H  0.78828283  0.48138407  0.35075158     0.06350
C1021       C  0.96342393  0.86532357  0.24561164     0.03390
C1022       C  0.96950907  0.87746740  0.21855953    -0.12760
C1023       C  0.99706062  0.88812289  0.21239543     0.00890
C1024       C  0.01914920  0.88594876  0.23334305    -0.11290
C1025       C  0.01285185  0.87697050  0.26221919     0.03380
C1026       C  0.98429374  0.86662973  0.26793133    -0.10710
H1027       H  0.95291119  0.87759374  0.20170860     0.08970
H1028       H  0.04096538  0.89133922  0.22669092     0.06500
H1029       H  0.97802562  0.85892944  0.28923193     0.06350
C1030       C  0.10348047  0.87516361  0.35373699     0.03390
C1031       C  0.10869263  0.85060526  0.37161569    -0.12760
C1032       C  0.12908104  0.85165327  0.39438539     0.00890
C1033       C  0.14775055  0.87556381  0.39667799    -0.11290
C1034       C  0.14485122  0.89924814  0.37775137     0.03380
C1035       C  0.12189625  0.89961077  0.35753968    -0.10710
H1036       H  0.09688968  0.83056667  0.36847783     0.08970
H1037       H  0.16451105  0.87578090  0.41332959     0.06500
H1038       H  0.11909352  0.91903832  0.34461294     0.06350
C1039       C  0.28157233  0.00505466  0.39615904     0.03390
C1040       C  0.25973062  0.98391716  0.39560149    -0.12760
C1041       C  0.23449034  0.98823896  0.37863340     0.00890
C1042       C  0.23147339  0.01429040  0.36255096    -0.11290
C1043       C  0.25355486  0.03544763  0.36323515     0.03380
C1044       C  0.27795851  0.03090716  0.38081024    -0.10710
H1045       H  0.26253492  0.96414709  0.40815149     0.08970
H1046       H  0.21253378  0.01765628  0.34887920     0.06500
H1047       H  0.29491706  0.04728560  0.38179981     0.06350
C1048       C  0.14217383  0.74778407  0.53331637     0.03390
C1049       C  0.12770736  0.72151670  0.52920588    -0.12760
C1050       C  0.11449420  0.71486373  0.50263131     0.00890
C1051       C  0.11507940  0.73538463  0.47994206    -0.11290
C1052       C  0.12974360  0.76213619  0.48368357     0.03380
C1053       C  0.14344416  0.76807774  0.51059392    -0.10710
H1054       H  0.12703367  0.70587339  0.54690377     0.08970
H1055       H  0.10419381  0.73052862  0.45956226     0.06500
H1056       H  0.15505559  0.78833997  0.51384874     0.06350
C1057       C  0.24832642  0.96430991  0.86192686     0.03390
C1058       C  0.22164034  0.96948565  0.87531851    -0.12760
C1059       C  0.21598937  0.99584596  0.88954054     0.00890
C1060       C  0.23780097  0.01729006  0.89047893    -0.11290
C1061       C  0.26474831  0.01244247  0.87671520     0.03380
C1062       C  0.26977858  0.98592088  0.86219218    -0.10710
H1063       H  0.20494362  0.95284611  0.87429978     0.08970
H1064       H  0.23383104  0.03767987  0.90166968     0.06500
H1065       H  0.29037722  0.98201715  0.85145374     0.06350
C1066       C  0.39719004  0.12383306  0.85179412     0.03390
C1067       C  0.37685822  0.10114813  0.85336495    -0.12760
C1068       C  0.35446266  0.10161785  0.87419842     0.00890
C1069       C  0.35407593  0.12419788  0.89496835    -0.11290
C1070       C  0.37470989  0.14681353  0.89419754     0.03380
C1071       C  0.39601045  0.14653740  0.87224829    -0.10710
H1072       H  0.37836515  0.08327370  0.83803399     0.08970
H1073       H  0.33767080  0.12412124  0.91183804     0.06500
H1074       H  0.41190350  0.16390384  0.87118022     0.06350
C1075       C  0.36259886  0.25323035  0.03203995     0.03390
C1076       C  0.37797741  0.27899659  0.02735433    -0.12760
C1077       C  0.39297238  0.28377541  0.00140878     0.00890
C1078       C  0.39273120  0.26226614  0.97967983    -0.11290
C1079       C  0.37774665  0.23590689  0.98422754     0.03380
C1080       C  0.36251409  0.23154978  0.01047528    -0.10710
H1081       H  0.37761668  0.29592615  0.04385771     0.08970
H1082       H  0.40394819  0.26607236  0.95929830     0.06500
H1083       H  0.35037564  0.21164084  0.01389185     0.06350
C1084       C  0.53687626  0.13403599  0.75057476     0.03390
C1085       C  0.53205026  0.12273239  0.72278126    -0.12760
C1086       C  0.50476167  0.11217179  0.71460315     0.00890
C1087       C  0.48222222  0.11158804  0.73526535    -0.11290
C1088       C  0.48698268  0.12260047  0.76354552     0.03380
C1089       C  0.51427091  0.13424505  0.77097109    -0.10710
H1090       H  0.54968252  0.12269968  0.70711781     0.08970
H1091       H  0.46112052  0.10290943  0.72935278     0.06500
H1092       H  0.51789457  0.14330217  0.79248789     0.06350
O1093       O  0.04955390  0.02114047  0.49451579    -0.88090
C1094       C  0.99957822  0.00880300  0.56606640     0.87940
Mg1095     Mg  0.03588776  0.04602655  0.45803496     1.58150
O1096       O  0.00459383  0.94855132  0.51973912    -0.87820
O1097       O  0.06465110  0.97668404  0.50322806    -0.75150
C1098       C  0.90119712  0.00119862  0.43281507     0.92990
O1099       O  0.00290471  0.06419660  0.52299342    -0.74960
O1100       O  0.91798492  0.02246310  0.42733768    -0.82470
Mg1101     Mg  0.04489106  0.04061200  0.53656157     1.57960
C1102       C  0.93352992  0.90127253  0.49678767     0.92920
O1103       O  0.08811074  0.02011317  0.55144378    -0.80730
H1104       H  0.02839881  0.91839154  0.49925059    -0.06070
C1105       C  0.93305784  0.99916575  0.50955369     0.87850
O1106       O  0.02240331  0.00406930  0.43417302    -0.75240
O1107       O  0.02059856  0.00366264  0.55007747    -0.88000
O1108       O  0.94812926  0.90951593  0.51892502    -0.80810
C1109       C  0.99872413  0.93115697  0.59629774     0.93030
C1110       C  0.09761798  0.99751801  0.56452151     0.92880
Mg1111     Mg  0.95278741  0.95821062  0.46216841     1.57950
O1112       O  0.90965576  0.97908258  0.44729893    -0.80740
O1113       O  0.99460573  0.93393512  0.47532199    -0.74980
O1114       O  0.02107441  0.94506401  0.58754350    -0.80820
O1115       O  0.06890630  0.08138472  0.52346119    -0.82530
O1116       O  0.97883718  0.05143489  0.40998254    -0.80850
C1117       C  0.00984421  0.93286010  0.49845149     0.87320
O1118       O  0.97796218  0.99452631  0.44853075    -0.87990
O1119       O  0.94889135  0.97807119  0.50401468    -0.88100
O1120       O  0.93384391  0.02242986  0.49453796    -0.75150
Mg1121     Mg  0.04108138  0.96207719  0.54478513     1.57970
O1122       O  0.97681710  0.92730260  0.57984009    -0.82530
H1123       H  0.07997386  0.00170858  0.47024526    -0.06250
O1124       O  0.99404220  0.05034800  0.47802956    -0.87800
H1125       H  0.96957213  0.07991454  0.49857163    -0.06080
H1126       H  0.99839769  0.97037814  0.41860545    -0.06250
C1127       C  0.98826029  0.06563121  0.49949448     0.87300
C1128       C  0.06553147  0.00023927  0.48875049     0.87880
C1129       C  0.99923210  0.98903617  0.43299212     0.87930
H1130       H  0.91869265  0.99806506  0.52813918    -0.06230
O1131       O  0.97632750  0.99392219  0.56476715    -0.75260
Mg1132     Mg  0.95786792  0.03623600  0.45275369     1.58000
H1133       H  0.00066570  0.02709681  0.58089179    -0.06250
C1134       C  0.06492547  0.09773981  0.50148719     0.92920
O1135       O  0.02262831  0.07029646  0.41727399    -0.82490
C1136       C  0.00121804  0.06482766  0.40058939     0.92980
O1137       O  0.08145044  0.97561732  0.56943089    -0.82470
Mg1138     Mg  0.96299541  0.95251292  0.54006697     1.58180
O1139       O  0.05161223  0.08919529  0.47862783    -0.80810
O1140       O  0.92777940  0.91826020  0.47570532    -0.82500
C1141       C  0.99622271  0.39252150  0.78462536     0.03390
C1142       C  0.96903315  0.38054432  0.77847153    -0.12760
C1143       C  0.96391653  0.36467670  0.75301108     0.00890
C1144       C  0.98585289  0.36306162  0.73179917    -0.11290
C1145       C  0.01278579  0.37701521  0.73656908     0.03380
C1146       C  0.01808056  0.39122552  0.76333713    -0.10710
H1147       H  0.95189185  0.38226147  0.79459295     0.08970
H1148       H  0.98222125  0.35077307  0.71196525     0.06500
H1149       H  0.03928104  0.40051164  0.76774534     0.06350
C1150       C  0.10280275  0.37307635  0.64772804     0.03390
C1151       C  0.12470282  0.39446160  0.64759360    -0.12760
C1152       C  0.14561645  0.39527527  0.62538460     0.00890
C1153       C  0.14475732  0.37427033  0.60314306    -0.11290
C1154       C  0.12290864  0.35282027  0.60256452     0.03380
C1155       C  0.10211209  0.35241718  0.62504843    -0.10710
H1156       H  0.12569749  0.41041467  0.66497902     0.08970
H1157       H  0.16085600  0.37500737  0.58595567     0.06500
H1158       H  0.08525658  0.33600737  0.62483297     0.06350
C1159       C  0.10905612  0.21504365  0.49608393     0.03390
C1160       C  0.12220245  0.22064471  0.46923795    -0.12760
C1161       C  0.13723572  0.24651480  0.46413573     0.00890
C1162       C  0.13713618  0.26844679  0.48542451    -0.11290
C1163       C  0.12282288  0.26386536  0.51216002     0.03380
C1164       C  0.10902825  0.23698132  0.51750372    -0.10710
H1165       H  0.12194320  0.20402270  0.45242683     0.08970
H1166       H  0.14865525  0.28863449  0.48153166     0.06500
H1167       H  0.09929520  0.23288459  0.53857473     0.06350
C1168       C  0.28519279  0.49994000  0.60915427     0.03390
C1169       C  0.26347167  0.47854970  0.60944660    -0.12760
C1170       C  0.23726069  0.48313139  0.62481115     0.00890
C1171       C  0.23298462  0.51030047  0.63880179    -0.11290
C1172       C  0.25434434  0.53218865  0.63737742     0.03380
C1173       C  0.28033942  0.52660639  0.62275053    -0.10710
H1174       H  0.26708046  0.45858342  0.59746204     0.08970
H1175       H  0.21312623  0.51452979  0.65070715     0.06500
H1176       H  0.29725197  0.54305387  0.62235495     0.06350
O1177       O  0.28006166  0.21851228  0.28109946    -0.88090
C1178       C  0.26221176  0.21079417  0.19508834     0.87940
Mg1179     Mg  0.24640296  0.21943583  0.31301339     1.58150
O1180       O  0.28396097  0.28058809  0.21679269    -0.87820
O1181       O  0.31599779  0.24609294  0.26621496    -0.75150
C1182       C  0.14989316  0.31289646  0.25883115     0.92990
O1183       O  0.22811774  0.18457886  0.24961176    -0.74960
O1184       O  0.15092683  0.29125761  0.27616331    -0.82470
Mg1185     Mg  0.27815667  0.18413637  0.24975932     1.57960
C1186       C  0.24266660  0.35334849  0.19051675     0.92920
O1187       O  0.32840643  0.17908446  0.24987051    -0.80730
H1188       H  0.31344684  0.30612219  0.23613814    -0.06070
C1189       C  0.19730928  0.26789684  0.20926555     0.87850
O1190       O  0.24876711  0.26930883  0.31479004    -0.75240
O1191       O  0.27866208  0.21568731  0.21588313    -0.88000
O1192       O  0.25443030  0.33078413  0.17952650    -0.80810
C1193       C  0.30647067  0.26026573  0.14426408     0.93030
C1194       C  0.34981253  0.18853223  0.23497295     0.92880
Mg1195     Mg  0.22197106  0.31691427  0.24650074     1.57950
O1196       O  0.17243176  0.32234819  0.24584732    -0.80740
O1197       O  0.27177225  0.31564836  0.24690187    -0.74980
O1198       O  0.31686592  0.24550752  0.16545753    -0.80820
O1199       O  0.27550996  0.14985713  0.28430688    -0.82530
O1200       O  0.18151325  0.25559208  0.32918875    -0.80850
C1201       C  0.29068834  0.30113192  0.23292591     0.87320
O1202       O  0.22023850  0.28500449  0.27982408    -0.87990
O1203       O  0.21914211  0.28257550  0.21497479    -0.88100
O1204       O  0.18294285  0.25489133  0.22894358    -0.75150
Mg1205     Mg  0.31411347  0.24570043  0.21608781     1.57970
O1206       O  0.28543994  0.27774854  0.14795516    -0.82530
H1207       H  0.30831082  0.23684865  0.30875600    -0.06250
O1208       O  0.21487441  0.22012508  0.27869278    -0.87800
H1209       H  0.18608985  0.19372451  0.25944280    -0.06080
H1210       H  0.24028802  0.31204620  0.30748682    -0.06250
C1211       C  0.20870928  0.19919223  0.26284408     0.87300
C1212       C  0.30176593  0.23355943  0.28633746     0.87880
C1213       C  0.23615563  0.28975815  0.30106578     0.87930
H1214       H  0.19094168  0.26511948  0.18672613    -0.06230
O1215       O  0.24934827  0.23116849  0.18149040    -0.75260
Mg1216     Mg  0.18442746  0.25520858  0.27884487     1.58000
H1217       H  0.25784950  0.18846401  0.18897239    -0.06250
C1218       C  0.25819671  0.14722052  0.30569870     0.92920
O1219       O  0.21200693  0.22286236  0.34770574    -0.82490
C1220       C  0.19142021  0.24116534  0.35079309     0.92980
O1221       O  0.34704657  0.20995445  0.21768958    -0.82470
Mg1222     Mg  0.25199188  0.28103959  0.18288651     1.58180
O1223       O  0.24438974  0.16901058  0.31603199    -0.80810
O1224       O  0.22602678  0.35200003  0.21255193    -0.82500
C1225       C  0.87424247  0.35264467  0.10639241     0.03390
C1226       C  0.85363043  0.37518069  0.10541151    -0.12760
C1227       C  0.85330264  0.39679921  0.12702288     0.00890
C1228       C  0.87415625  0.39619917  0.14937966    -0.11290
C1229       C  0.89516019  0.37404616  0.15027575     0.03380
C1230       C  0.89494069  0.35214017  0.12893837    -0.10710
H1231       H  0.83769291  0.37575564  0.08798227     0.08970
H1232       H  0.87424093  0.41311719  0.16586008     0.06500
H1233       H  0.91131387  0.33516177  0.12944908     0.06350
C1234       C  0.86808223  0.25015687  0.96408898     0.03390
C1235       C  0.88579542  0.22587171  0.96895483    -0.12760
C1236       C  0.89654121  0.21934860  0.99660739     0.00890
C1237       C  0.89399860  0.24017060  0.01882876    -0.11290
C1238       C  0.87932155  0.26669320  0.01360568     0.03380
C1239       C  0.86522860  0.27094389  0.98646767    -0.10710
H1240       H  0.88896139  0.21017362  0.95157002     0.08970
H1241       H  0.90284268  0.23551766  0.04021518     0.06500
H1242       H  0.85135810  0.28973434  0.98331268     0.06350
C1243       C  0.00535574  0.38843388  0.28470517     0.03390
C1244       C  0.98265787  0.38794298  0.26415701    -0.12760
C1245       C  0.98744093  0.37643709  0.23610817     0.00890
C1246       C  0.01490799  0.36490705  0.22899969    -0.11290
C1247       C  0.03755349  0.36577020  0.24948752     0.03380
C1248       C  0.03278881  0.37815436  0.27677477    -0.10710
H1249       H  0.96143914  0.39640467  0.26992497     0.08970
H1250       H  0.01853335  0.35514584  0.20781145     0.06500
H1251       H  0.05053138  0.37897796  0.29237537     0.06350
C1252       C  0.71625952  0.50234531  0.11070305     0.03390
C1253       C  0.72107546  0.52832902  0.12576422    -0.12760
C1254       C  0.74783093  0.53434364  0.13886402     0.00890
C1255       C  0.76978577  0.51310887  0.13846567    -0.11290
C1256       C  0.76472877  0.48610559  0.12486696     0.03380
C1257       C  0.73798482  0.48083866  0.11083264    -0.10710
H1258       H  0.70379865  0.54436416  0.12703132     0.08970
H1259       H  0.79058698  0.51747221  0.14869313     0.06500
H1260       H  0.73429395  0.46027925  0.09984364     0.06350
C1261       C  0.85425041  0.89837848  0.87626123     0.03390
C1262       C  0.87310041  0.89675390  0.85223539    -0.12760
C1263       C  0.89597349  0.87621693  0.85143591     0.00890
C1264       C  0.89813103  0.85605475  0.87462812    -0.11290
C1265       C  0.87852478  0.85653600  0.89813781     0.03380
C1266       C  0.85697603  0.87814886  0.89888817    -0.10710
H1267       H  0.86925115  0.91117481  0.83404011     0.08970
H1268       H  0.91489600  0.83955261  0.87429880     0.06500
H1269       H  0.84211685  0.87922154  0.91716126     0.06350
C1270       C  0.03458631  0.85756395  0.74633993     0.03390
C1271       C  0.01201460  0.85630901  0.76688074    -0.12760
C1272       C  0.98492483  0.86942747  0.76072895     0.00890
C1273       C  0.98084569  0.88353935  0.73374387    -0.11290
C1274       C  0.00352921  0.88490626  0.71340917     0.03380
C1275       C  0.03009214  0.87170022  0.71982499    -0.10710
H1276       H  0.01573566  0.84577980  0.78767266     0.08970
H1277       H  0.96018720  0.89375809  0.72873115     0.06500
H1278       H  0.04743313  0.87215307  0.70384173     0.06350
C1279       C  0.74605461  0.03433981  0.86480283     0.03390
C1280       C  0.71965860  0.02997080  0.87892918    -0.12760
C1281       C  0.71416208  0.00416586  0.89376003     0.00890
C1282       C  0.73573455  0.98262934  0.89546092    -0.11290
C1283       C  0.76225571  0.98586611  0.88022214     0.03380
C1284       C  0.76697243  0.01208384  0.86467085    -0.10710
H1285       H  0.70302488  0.04672435  0.87805389     0.08970
H1286       H  0.73166526  0.96374962  0.90884445     0.06500
H1287       H  0.78686322  0.01540543  0.85254685     0.06350
C1288       C  0.86243362  0.74714555  0.03376265     0.03390
C1289       C  0.87754199  0.72138239  0.02805801    -0.12760
C1290       C  0.89245742  0.71741785  0.00198704     0.00890
C1291       C  0.89289429  0.73973899  0.98120874    -0.11290
C1292       C  0.87783128  0.76591883  0.98652519     0.03380
C1293       C  0.86260250  0.76955052  0.01294247    -0.10710
H1294       H  0.87761567  0.70404242  0.04410984     0.08970
H1295       H  0.90461219  0.73668158  0.96097765     0.06500
H1296       H  0.85071757  0.78950235  0.01707008     0.06350
O1297       O  0.21664853  0.71748152  0.71901305    -0.88090
C1298       C  0.30294193  0.73218761  0.71079775     0.87940
Mg1299     Mg  0.18545900  0.75171725  0.71963826     1.58150
O1300       O  0.28092261  0.71419907  0.78148469    -0.87820
O1301       O  0.23029480  0.68204700  0.74808068    -0.75150
C1302       C  0.24179295  0.85203295  0.80717506     0.92990
O1303       O  0.24918300  0.76803154  0.68370646    -0.74960
O1304       O  0.22398685  0.84961305  0.78610350    -0.82470
Mg1305     Mg  0.24788597  0.71814364  0.68436432     1.57960
C1306       C  0.30966348  0.76043977  0.85235969     0.92920
O1307       O  0.24729019  0.66808126  0.68018434    -0.80730
H1308       H  0.26105821  0.68701225  0.80902765    -0.06070
C1309       C  0.29071188  0.80031339  0.76436723     0.87850
O1310       O  0.18467348  0.75098813  0.76959373    -0.75240
O1311       O  0.28142824  0.71699174  0.71623886    -0.88000
O1312       O  0.31956460  0.74512238  0.83136289    -0.80810
C1313       C  0.35234414  0.68892483  0.76042412     0.93030
C1314       C  0.26024759  0.64580471  0.69057339     0.92880
Mg1315     Mg  0.25375017  0.77974531  0.81478476     1.57950
O1316       O  0.25516018  0.83001345  0.81760058    -0.80740
O1317       O  0.25231430  0.72969771  0.81643296    -0.74980
O1318       O  0.33041322  0.67885190  0.74660293    -0.80820
O1319       O  0.21341183  0.72167531  0.64945580    -0.82530
O1320       O  0.17116146  0.81844695  0.75289734    -0.80850
C1321       C  0.26500825  0.70932588  0.80264326     0.87320
O1322       O  0.21987411  0.78012064  0.78348207    -0.87990
O1323       O  0.28487356  0.77937929  0.78028601    -0.88100
O1324       O  0.27104502  0.81473463  0.75125255    -0.75150
Mg1325     Mg  0.28017064  0.68237383  0.74751875     1.57970
O1326       O  0.34980460  0.70953076  0.77878415    -0.82530
H1327       H  0.18820652  0.69057988  0.73789349    -0.06250
O1328       O  0.22027157  0.78262328  0.71874198    -0.87800
H1329       H  0.23979966  0.81045010  0.69162961    -0.06080
H1330       H  0.19286027  0.76123660  0.81182712    -0.06250
C1331       C  0.23610451  0.78799544  0.69766094     0.87300
C1332       C  0.21075563  0.69635322  0.73466221     0.87880
C1333       C  0.19877242  0.76445552  0.78925972     0.87930
H1334       H  0.31324759  0.80593076  0.76078915    -0.06230
O1335       O  0.31718990  0.74507979  0.73074215    -0.75260
Mg1336     Mg  0.22105288  0.81451331  0.75207047     1.58000
H1337       H  0.30923291  0.73536304  0.68832673    -0.06250
C1338       C  0.19226429  0.73947361  0.64744820     0.92920
O1339       O  0.15090529  0.78649118  0.72255195    -0.82490
C1340       C  0.14900160  0.80815777  0.73974099     0.92980
O1341       O  0.27675159  0.64736871  0.71283815    -0.82470
Mg1342     Mg  0.31592243  0.74487591  0.78079068     1.58180
O1343       O  0.18223548  0.75274797  0.66965642    -0.80810
O1344       O  0.28828923  0.77760323  0.84892029    -0.82500
C1345       C  0.06330268  0.84403005  0.75121590     0.00100
C1346       C  0.08768559  0.86227501  0.75336366    -0.11770
C1347       C  0.11588212  0.85111424  0.75048107     0.02340
C1348       C  0.11994391  0.82108677  0.74502427     0.00020
C1349       C  0.09548832  0.80272563  0.74419013    -0.11710
C1350       C  0.06736112  0.81391736  0.74729154     0.02220
H1351       H  0.08455516  0.88557367  0.75574075     0.15200
H1352       H  0.09830003  0.77956537  0.74049555     0.15200
C1353       C  0.04295002  0.79438645  0.74440378     0.36860
C1354       C  0.13994327  0.87129678  0.75111941     0.36760
N1355       N  0.02344365  0.77866861  0.74201192    -0.43490
N1356       N  0.15919548  0.88750146  0.75159743    -0.43480
C1357       C  0.83100342  0.92082004  0.87764915     0.00100
C1358       C  0.80187319  0.91194010  0.87821617    -0.11770
C1359       C  0.77913129  0.93229248  0.87948332     0.02340
C1360       C  0.78535631  0.96261246  0.88054963     0.00020
C1361       C  0.81480981  0.97116482  0.88111392    -0.11710
C1362       C  0.83741116  0.95073902  0.87954217     0.02220
H1363       H  0.79686873  0.88888667  0.87722589     0.15200
H1364       H  0.82037411  0.99399046  0.88315199     0.15200
C1365       C  0.86701051  0.96101565  0.88129824     0.36860
C1366       C  0.74987975  0.92095571  0.87892670     0.36760
N1367       N  0.89064165  0.96946818  0.88303872    -0.43490
N1368       N  0.72654794  0.91153303  0.87897583    -0.43480
C1369       C  0.87913058  0.83353941  0.92117541     0.00100
C1370       C  0.85280050  0.82008446  0.92904561    -0.11770
C1371       C  0.85190123  0.79835101  0.95041292     0.02340
C1372       C  0.87777001  0.78928045  0.96421537     0.00020
C1373       C  0.90413364  0.80247137  0.95640330    -0.11710
C1374       C  0.90501565  0.82463975  0.93538250     0.02220
H1375       H  0.83278627  0.82633213  0.91817050     0.15200
H1376       H  0.92405562  0.79573747  0.96716832     0.15200
C1377       C  0.93256724  0.83856944  0.92978751     0.36860
C1378       C  0.82427207  0.78509217  0.95719557     0.36760
N1379       N  0.95470340  0.84964737  0.92532829    -0.43490
N1380       N  0.80212969  0.77450123  0.96267337    -0.43480
C1381       C  0.91743239  0.87497588  0.82657960     0.00100
C1382       C  0.92834094  0.84763579  0.81759601    -0.11770
C1383       C  0.95032711  0.84520982  0.79654609     0.02340
C1384       C  0.96144542  0.87039540  0.78303918     0.00020
C1385       C  0.94991741  0.89752328  0.79087477    -0.11710
C1386       C  0.92847800  0.90016212  0.81238142     0.02220
H1387       H  0.91969888  0.82782885  0.82698792     0.15200
H1388       H  0.95834501  0.91702021  0.78057282     0.15200
C1389       C  0.91933471  0.92934719  0.81943085     0.36860
C1390       C  0.96069412  0.81654063  0.78890016     0.36760
N1391       N  0.91221588  0.95306707  0.82401866    -0.43490
N1392       N  0.96900886  0.79350269  0.78300385    -0.43480
C1393       C  0.87493717  0.33038693  0.08299693     0.00100
C1394       C  0.88233166  0.33903607  0.05469631    -0.11770
C1395       C  0.88418670  0.31870755  0.03199401     0.02340
C1396       C  0.87745130  0.28909725  0.03713331     0.00020
C1397       C  0.86985352  0.28055125  0.06558205    -0.11710
C1398       C  0.86891581  0.30080201  0.08847601     0.02220
H1399       H  0.88760132  0.36167650  0.05055093     0.15200
H1400       H  0.86466804  0.25795601  0.06997821     0.15200
C1401       C  0.86147252  0.29081855  0.11734168     0.36860
C1402       C  0.89521863  0.32857141  0.00431242     0.36760
N1403       N  0.85564058  0.28284359  0.14051828    -0.43490
N1404       N  0.90456475  0.33675517  0.98242241    -0.43480
C1405       C  0.91829795  0.37460012  0.17272032     0.00100
C1406       C  0.94223284  0.39304175  0.16866598    -0.11770
C1407       C  0.96492567  0.39389441  0.18907778     0.02340
C1408       C  0.96368849  0.37627796  0.21422712     0.00020
C1409       C  0.93952050  0.35811662  0.21848423    -0.11710
C1410       C  0.91698379  0.35700212  0.19784167     0.02220
H1411       H  0.94323949  0.40666911  0.14939937     0.15200
H1412       H  0.93845899  0.34454996  0.23778488     0.15200
C1413       C  0.89267757  0.33779430  0.20284918     0.36860
C1414       C  0.98900771  0.41339403  0.18407360     0.36760
N1415       N  0.87317635  0.32240409  0.20681052    -0.43490
N1416       N  0.00831485  0.42902535  0.18010864    -0.43480
C1417       C  0.83098878  0.42001320  0.12629323     0.00100
C1418       C  0.80765632  0.41864598  0.14586988    -0.11770
C1419       C  0.78579336  0.43991190  0.14552876     0.02340
C1420       C  0.78733996  0.46320535  0.12559752     0.00020
C1421       C  0.81081273  0.46475184  0.10619287    -0.11710
C1422       C  0.83250071  0.44326129  0.10627758     0.02220
H1423       H  0.80642372  0.40078534  0.16126492     0.15200
H1424       H  0.81208233  0.48268450  0.09088871     0.15200
C1425       C  0.85629344  0.44563288  0.08595365     0.36860
C1426       C  0.76206040  0.43758777  0.16592602     0.36760
N1427       N  0.87539118  0.44748947  0.06968960    -0.43490
N1428       N  0.74299017  0.43578553  0.18222544    -0.43480
C1429       C  0.12143867  0.32680688  0.25292091     0.00100
C1430       C  0.09645717  0.30920289  0.25244649    -0.11770
C1431       C  0.06886526  0.32131914  0.24823543     0.02340
C1432       C  0.06589941  0.35161319  0.24465177     0.00020
C1433       C  0.09086104  0.36910948  0.24373613    -0.11710
C1434       C  0.11855090  0.35699907  0.24759134     0.02220
H1435       H  0.09842907  0.28592224  0.25588569     0.15200
H1436       H  0.08853319  0.39252346  0.24164423     0.15200
C1437       C  0.14327394  0.37636894  0.24802212     0.36860
C1438       C  0.04373233  0.30254759  0.24963360     0.36760
N1439       N  0.16306525  0.39191224  0.24836457    -0.43490
N1440       N  0.02354115  0.28757819  0.25072705    -0.43480
C1441       C  0.25071094  0.56124416  0.65109187     0.00100
C1442       C  0.25451868  0.58604541  0.63357756    -0.11770
C1443       C  0.25705781  0.61380520  0.64590569     0.02340
C1444       C  0.25590106  0.61715058  0.67644251     0.00020
C1445       C  0.25103552  0.59251422  0.69393202    -0.11710
C1446       C  0.24821933  0.56472417  0.68152420     0.02220
H1447       H  0.25674328  0.58350827  0.61017699     0.15200
H1448       H  0.24979326  0.59495198  0.71741091     0.15200
C1449       C  0.24433742  0.54002394  0.70054955     0.36860
C1450       C  0.26298635  0.63812768  0.62689036     0.36760
N1451       N  0.24109898  0.52022219  0.71577586    -0.43490
N1452       N  0.26787637  0.65759559  0.61167782    -0.43480
C1453       C  0.15442214  0.24868765  0.43698325     0.00100
C1454       C  0.14690973  0.26925960  0.41572790    -0.11770
C1455       C  0.15906420  0.26795683  0.38767953     0.02340
C1456       C  0.17890088  0.24534215  0.38049013     0.00020
C1457       C  0.18751340  0.22594891  0.40259933    -0.11710
C1458       C  0.17573307  0.22756835  0.43051912     0.02220
H1459       H  0.13071257  0.28569222  0.42071738     0.15200
H1460       H  0.20321156  0.20891973  0.39806172     0.15200
C1461       C  0.18557274  0.20689275  0.45214343     0.36860
C1462       C  0.15070356  0.29015324  0.36702484     0.36760
N1463       N  0.19344800  0.19032359  0.46943319    -0.43490
N1464       N  0.14405495  0.30808267  0.35059405    -0.43480
C1465       C  0.12240564  0.33040612  0.57885859     0.00100
C1466       C  0.14845978  0.31623162  0.57126402    -0.11770
C1467       C  0.14907665  0.29479591  0.54947821     0.02340
C1468       C  0.12320562  0.28675000  0.53503389     0.00020
C1469       C  0.09718334  0.30082330  0.54240994    -0.11710
C1470       C  0.09661156  0.32275027  0.56372898     0.02220
H1471       H  0.16841860  0.32166016  0.58265393     0.15200
H1472       H  0.07731343  0.29501841  0.53102971     0.15200
C1473       C  0.06951648  0.33786192  0.56859008     0.36860
C1474       C  0.17640109  0.28086611  0.54275306     0.36760
N1475       N  0.04777703  0.34994964  0.57243868    -0.43490
N1476       N  0.19828903  0.26971850  0.53728351    -0.43480
C1477       C  0.21402724  0.46012470  0.62555788     0.00100
C1478       C  0.18465407  0.46849841  0.62279487    -0.11770
C1479       C  0.16214195  0.44787791  0.62319013     0.02340
C1480       C  0.16868893  0.41796671  0.62554090     0.00020
C1481       C  0.19781108  0.40941560  0.62827959    -0.11710
C1482       C  0.22032450  0.43001947  0.62888946     0.02220
H1483       H  0.17915090  0.49127226  0.61995328     0.15200
H1484       H  0.20292522  0.38647225  0.63064950     0.15200
C1485       C  0.24938948  0.41942103  0.63429396     0.36860
C1486       C  0.13248864  0.45790303  0.62058043     0.36760
N1487       N  0.27259663  0.41061698  0.63850961    -0.43490
N1488       N  0.10869753  0.46590023  0.61867454    -0.43480
C1489       C  0.03577272  0.37610900  0.71391338     0.00100
C1490       C  0.04879792  0.34943350  0.70674061    -0.11770
C1491       C  0.07093624  0.34787344  0.68575811     0.02340
C1492       C  0.07995138  0.37335698  0.67089727     0.00020
C1493       C  0.06672752  0.40000646  0.67821207    -0.11710
C1494       C  0.04505163  0.40157988  0.69956674     0.02220
H1495       H  0.04202332  0.32984095  0.71801528     0.15200
H1496       H  0.07308831  0.41971992  0.66691471     0.15200
C1497       C  0.03206448  0.42950663  0.70581006     0.36860
C1498       C  0.08478899  0.32007305  0.68093594     0.36760
N1499       N  0.02165989  0.45191080  0.71073399    -0.43490
N1500       N  0.09583240  0.29775607  0.67709316    -0.43480
C1501       C  0.99994238  0.89928673  0.68479511     0.00100
C1502       C  0.97937435  0.88831860  0.66511199    -0.11770
C1503       C  0.97836462  0.89822968  0.63624591     0.02340
C1504       C  0.99823980  0.91982106  0.62668299     0.00020
C1505       C  0.01812934  0.93141038  0.64692010    -0.11710
C1506       C  0.01910190  0.92142076  0.67565583     0.02220
H1507       H  0.96485862  0.87105007  0.67200002     0.15200
H1508       H  0.03311718  0.94837859  0.64033498     0.15200
C1509       C  0.04000717  0.93423112  0.69540462     0.36860
C1510       C  0.95752552  0.88479704  0.61687705     0.36760
N1511       N  0.05678038  0.94443731  0.71121871    -0.43490
N1512       N  0.94080144  0.87394524  0.60144128    -0.43480
C1513       C  0.07671116  0.12745122  0.50225137     0.00100
C1514       C  0.05896564  0.15060348  0.51135417    -0.11770
C1515       C  0.06929646  0.17938407  0.51095341     0.02340
C1516       C  0.09790914  0.18510523  0.50141771     0.00020
C1517       C  0.11587070  0.16151703  0.49359792    -0.11710
C1518       C  0.10543215  0.13299464  0.49360634     0.02220
H1519       H  0.03682095  0.14623723  0.51814121     0.15200
H1520       H  0.13798318  0.16550963  0.48651146     0.15200
C1521       C  0.12420680  0.10985279  0.48359607     0.36860
C1522       C  0.04972156  0.20259198  0.51898846     0.36760
N1523       N  0.13915040  0.09130986  0.47540858    -0.43490
N1524       N  0.03403856  0.22117890  0.52553280    -0.43480
C1525       C  0.31894742  0.25695725  0.11445248     0.00100
C1526       C  0.33911823  0.23447827  0.10897583    -0.11770
C1527       C  0.35233449  0.23145510  0.08158843     0.02340
C1528       C  0.34527119  0.25099441  0.05903357     0.00020
C1529       C  0.32420221  0.27242799  0.06391810    -0.11710
C1530       C  0.31117104  0.27577191  0.09112849     0.02220
H1531       H  0.34508583  0.21953698  0.12625681     0.15200
H1532       H  0.31888197  0.28759356  0.04656633     0.15200
C1533       C  0.29097857  0.29968464  0.09430443     0.36860
C1534       C  0.37413510  0.20920543  0.07759975     0.36760
N1535       N  0.27488930  0.31892505  0.09664947    -0.43490
N1536       N  0.39160452  0.19135873  0.07437962    -0.43480
C1537       C  0.37726551  0.21324951  0.96116741     0.00100
C1538       C  0.35074964  0.20604867  0.94784699    -0.09530
C1539       C  0.34939163  0.18505543  0.92566031     0.02340
C1540       C  0.37490978  0.17014875  0.91693202     0.00020
C1541       C  0.40143937  0.17752519  0.93038185    -0.11710
C1542       C  0.40282747  0.19896012  0.95209329     0.02220
H1543       H  0.33110185  0.21734093  0.95442474     0.15200
H1544       H  0.42118856  0.16622346  0.92416617     0.15200
C1545       C  0.43062633  0.20543137  0.96526071     0.36860
C1546       C  0.32176481  0.18027314  0.91144507     0.36760
N1547       N  0.45289536  0.21069753  0.97579003    -0.43490
N1548       N  0.29959268  0.17647184  0.90010004    -0.43480
C1549       C  0.41980688  0.12365798  0.82871025     0.00100
C1550       C  0.43936958  0.10020565  0.82722527    -0.11770
C1551       C  0.46121748  0.09940938  0.80597629     0.02340
C1552       C  0.46350123  0.12216489  0.78551883     0.00020
C1553       C  0.44376501  0.14540568  0.78666658    -0.11710
C1554       C  0.42202878  0.14634600  0.80803942     0.02220
H1555       H  0.43780097  0.08267963  0.84296721     0.15200
H1556       H  0.44547157  0.16291603  0.77091974     0.15200
C1557       C  0.40181046  0.17040628  0.80786044     0.36860
C1558       C  0.48120996  0.07517010  0.80562098     0.36760
N1559       N  0.38558094  0.18966815  0.80772907    -0.43490
N1560       N  0.49729163  0.05578987  0.80528918    -0.43480
C1561       C  0.25258683  0.93606722  0.84727397     0.00100
C1562       C  0.24742993  0.93423582  0.81726697    -0.11770
C1563       C  0.24462047  0.90713755  0.80355041     0.02340
C1564       C  0.24690722  0.88119848  0.82012544     0.00020
C1565       C  0.25371384  0.88322980  0.84991140    -0.11710
C1566       C  0.25642643  0.91035181  0.86355227     0.02220
H1567       H  0.24431626  0.95404653  0.80477906     0.15200
H1568       H  0.25566425  0.86360994  0.86285995     0.15200
C1569       C  0.26211006  0.91136288  0.89449533     0.36860
C1570       C  0.23938426  0.90674291  0.77250396     0.36760
N1571       N  0.26670297  0.91221907  0.91928286    -0.43490
N1572       N  0.23520795  0.90650551  0.74762545    -0.43480
C1573       C  0.28749265  0.03533194  0.87663600     0.00100
C1574       C  0.29592005  0.04747217  0.84995554    -0.11770
C1575       C  0.31726809  0.06917847  0.84864317     0.02340
C1576       C  0.33145392  0.07858721  0.87444898     0.00020
C1577       C  0.32294289  0.06621531  0.90117950    -0.11710
C1578       C  0.30101539  0.04503719  0.90247661     0.02220
H1579       H  0.28527799  0.04034701  0.83006620     0.15200
H1580       H  0.33360124  0.07294192  0.92117812     0.15200
C1581       C  0.29318603  0.03313648  0.93049088     0.36860
C1582       C  0.32306551  0.08223500  0.82063340     0.36760
N1583       N  0.28682098  0.02366254  0.95294662    -0.43490
N1584       N  0.32770683  0.09260745  0.79814482    -0.43480
C1585       C  0.17957056  0.74526342  0.61825567     0.00100
C1586       C  0.19723683  0.74127663  0.59356407    -0.11770
C1587       C  0.18603113  0.74475481  0.56542724     0.02340
C1588       C  0.15665228  0.75236862  0.56159117     0.00020
C1589       C  0.13927349  0.75773080  0.58605952    -0.11710
C1590       C  0.15042641  0.75442845  0.61427649     0.02220
H1591       H  0.21977611  0.73480723  0.59618537     0.15200
H1592       H  0.11644857  0.76294299  0.58304946     0.15200
C1593       C  0.13084901  0.75872500  0.63846981     0.36860
C1594       C  0.20452899  0.73863519  0.54078040     0.36760
N1595       N  0.11510786  0.76218871  0.65780658    -0.43490
N1596       N  0.21929518  0.73372393  0.52099364    -0.43480
C1597       C  0.25249456  0.06221068  0.34520804     0.00100
C1598       C  0.22922636  0.08172829  0.34827093    -0.11770
C1599       C  0.23010006  0.10936651  0.33520313     0.02340
C1600       C  0.25482074  0.11787742  0.31892502     0.00020
C1601       C  0.27723684  0.09754393  0.31463509    -0.11710
C1602       C  0.27621197  0.07000015  0.32732274     0.02220
H1603       H  0.21078751  0.07574466  0.36167596     0.15200
H1604       H  0.29610107  0.10331890  0.30173510     0.15200
C1605       C  0.30006028  0.05022234  0.32184210     0.36860
C1606       C  0.20514530  0.12815820  0.33844395     0.36760
N1607       N  0.31924729  0.03447729  0.31761166    -0.43490
N1608       N  0.18504286  0.14311539  0.34091832    -0.43480
C1609       C  0.21152604  0.96539052  0.37747463     0.00100
C1610       C  0.18235230  0.97326755  0.38219194    -0.11770
C1611       C  0.16021642  0.95224071  0.38234440     0.02340
C1612       C  0.16714916  0.92263529  0.37789708     0.00020
C1613       C  0.19618748  0.91481718  0.37279254    -0.11710
C1614       C  0.21823482  0.93578204  0.37221691     0.02220
H1615       H  0.17689761  0.99587579  0.38629447     0.15200
H1616       H  0.20158489  0.89217920  0.36870367     0.15200
C1617       C  0.24732305  0.92635980  0.36503323     0.36860
C1618       C  0.13075472  0.96145181  0.38798876     0.36760
N1619       N  0.27061660  0.91876728  0.35930445    -0.43490
N1620       N  0.10711822  0.96883684  0.39243150    -0.43480
C1621       C  0.12954484  0.82869070  0.41710959     0.00100
C1622       C  0.13701908  0.80001083  0.40973710    -0.11770
C1623       C  0.13755201  0.77800629  0.43098126     0.02340
C1624       C  0.12991035  0.78450620  0.46015291     0.00020
C1625       C  0.12228475  0.81324970  0.46730955    -0.11710
C1626       C  0.12211659  0.83522170  0.44621802     0.02220
H1627       H  0.14291544  0.79493026  0.38743213     0.15200
H1628       H  0.11607498  0.81852722  0.48948580     0.15200
C1629       C  0.11342806  0.86420582  0.45482792     0.36860
C1630       C  0.14718409  0.74932277  0.42248340     0.36760
N1631       N  0.10649608  0.88744079  0.46168287    -0.43490
N1632       N  0.15491887  0.72633389  0.41566122    -0.43480
C1633       C  0.03597483  0.87728408  0.28582437     0.00100
C1634       C  0.03373410  0.85817115  0.30977061    -0.11770
C1635       C  0.05378825  0.85859669  0.33287428     0.02340
C1636       C  0.07965815  0.87538417  0.33082558     0.00020
C1637       C  0.08231521  0.89378891  0.30638486    -0.11710
C1638       C  0.06011184  0.89657492  0.28560994     0.02220
H1639       H  0.01583833  0.84301747  0.31126160     0.15200
H1640       H  0.10151247  0.90700772  0.30343754     0.15200
C1641       C  0.06208496  0.92122918  0.26618444     0.36860
C1642       C  0.04549967  0.84323927  0.35901913     0.36760
N1643       N  0.06382104  0.94118313  0.25089523    -0.43490
N1644       N  0.03851061  0.83100408  0.37990252    -0.43480
C1645       C  0.90474982  0.81256019  0.49574979     0.00100
C1646       C  0.88520093  0.83499481  0.48888817    -0.11770
C1647       C  0.89424774  0.86403286  0.48857959     0.02340
C1648       C  0.92332600  0.87091129  0.49547821     0.00020
C1649       C  0.94309488  0.84835494  0.50153349    -0.11710
C1650       C  0.93404181  0.81924471  0.50152547     0.02220
H1651       H  0.86248307  0.82985401  0.48508246     0.15200
H1652       H  0.96557148  0.85353296  0.50651586     0.15200
C1653       C  0.95479895  0.79669128  0.50845519     0.36860
C1654       C  0.87285064  0.88644925  0.48326084     0.36760
N1655       N  0.97143784  0.77856935  0.51388000    -0.43490
N1656       N  0.85569510  0.90443269  0.47914653    -0.43480
C1657       C  0.87429720  0.66710736  0.42189910     0.00100
C1658       C  0.86902809  0.69603622  0.41376571    -0.11770
C1659       C  0.86899862  0.71840995  0.43449937     0.02340
C1660       C  0.87521373  0.71212196  0.46408625     0.00020
C1661       C  0.88013508  0.68299318  0.47220462    -0.11710
C1662       C  0.87955452  0.66054544  0.45145826     0.02220
H1663       H  0.86447772  0.70107636  0.39110986     0.15200
H1664       H  0.88489421  0.67779802  0.49476722     0.15200
C1665       C  0.88523841  0.63108058  0.46082476     0.36860
C1666       C  0.86130670  0.74735478  0.42489768     0.36760
N1667       N  0.88974550  0.60743795  0.46827981    -0.43490
N1668       N  0.85514669  0.77053436  0.41716719    -0.43480
C1669       C  0.91735891  0.62598376  0.33056556     0.00100
C1670       C  0.93221680  0.60030385  0.32298495    -0.11770
C1671       C  0.95386673  0.60040645  0.30154327     0.02340
C1672       C  0.96127426  0.62663287  0.28744250     0.00020
C1673       C  0.94640335  0.65224951  0.29475154    -0.11710
C1674       C  0.92436347  0.65210293  0.31578196     0.02220
H1675       H  0.92722477  0.58014331  0.33418383     0.15200
H1676       H  0.95175725  0.67236542  0.28362091     0.15200
C1677       C  0.90858125  0.67881573  0.32085895     0.36860
C1678       C  0.96876070  0.57351802  0.29496641     0.36760
N1679       N  0.89595734  0.70023836  0.32490127    -0.43490
N1680       N  0.98067983  0.55197415  0.28964090    -0.43480
C1681       C  0.82978855  0.57863403  0.37589677     0.00100
C1682       C  0.82526359  0.56219560  0.40133136    -0.11770
C1683       C  0.80410262  0.54027616  0.40225329     0.02340
C1684       C  0.78716814  0.53428729  0.37734756     0.00020
C1685       C  0.79157128  0.55058083  0.35192461    -0.11710
C1686       C  0.81243222  0.57280180  0.35106168     0.02220
H1687       H  0.83845243  0.56637779  0.42050743     0.15200
H1688       H  0.77821614  0.54629978  0.33288123     0.15200
C1689       C  0.81455606  0.59014731  0.32491725     0.36860
C1690       C  0.80036570  0.52391500  0.42883071     0.36760
N1691       N  0.81619971  0.60406959  0.30397620    -0.43490
N1692       N  0.79735512  0.51076815  0.45011121    -0.43480
C1693       C  0.58521078  0.86939076  0.17262339     0.00100
C1694       C  0.55669216  0.86319551  0.16394393    -0.11770
C1695       C  0.53378697  0.86179746  0.18391222     0.02340
C1696       C  0.53876787  0.86740001  0.21407287     0.00020
C1697       C  0.56787945  0.87248027  0.22277348    -0.11710
C1698       C  0.59079455  0.87371443  0.20255807     0.02220
H1699       H  0.55210743  0.85965623  0.14100457     0.15200
H1700       H  0.57308034  0.87529158  0.24563238     0.15200
C1701       C  0.61989065  0.87874881  0.21329088     0.36860
C1702       C  0.50603202  0.85400697  0.17165301     0.36760
N1703       N  0.64319193  0.88294506  0.22187480    -0.43490
N1704       N  0.48479778  0.84650162  0.16040007    -0.43480
C1705       C  0.62754136  0.82861878  0.08060758     0.00100
C1706       C  0.65382252  0.81611677  0.07118393    -0.11770
C1707       C  0.65418126  0.79465261  0.04941932     0.02340
C1708       C  0.62787215  0.78497487  0.03690542     0.00020
C1709       C  0.60164179  0.79746232  0.04607167    -0.11710
C1710       C  0.60125383  0.81936828  0.06735473     0.02220
H1711       H  0.67414747  0.82288056  0.08110294     0.15200
H1712       H  0.58141651  0.79046517  0.03608137     0.15200
C1713       C  0.57369612  0.83284211  0.07409921     0.36860
C1714       C  0.68173372  0.78241655  0.04067551     0.36760
N1715       N  0.55156906  0.84360554  0.07937654    -0.43490
N1716       N  0.70379775  0.77261529  0.03359254    -0.43480
C1717       C  0.71320918  0.96346104  0.12411811     0.00100
C1718       C  0.69536289  0.95936254  0.09963667    -0.11770
C1719       C  0.67353814  0.93800401  0.09956859     0.02340
C1720       C  0.66959399  0.91999823  0.12425695     0.00020
C1721       C  0.68734646  0.92443246  0.14883043    -0.11710
C1722       C  0.70899682  0.94589153  0.14892095     0.02220
H1723       H  0.69832671  0.97308758  0.08065232     0.15200
H1724       H  0.68464469  0.91068848  0.16784154     0.15200
C1725       C  0.72719874  0.94901380  0.17440518     0.36860
C1726       C  0.65484887  0.93573034  0.07434680     0.36760
N1727       N  0.74186847  0.95152921  0.19476878    -0.43490
N1728       N  0.63983282  0.93398106  0.05415311    -0.43480
C1729       C  0.11962773  0.67496764  0.25493135     0.00100
C1730       C  0.09885954  0.69122203  0.23933008    -0.11770
C1731       C  0.06953123  0.68325569  0.23928935     0.02340
C1732       C  0.06042830  0.65873755  0.25521968     0.00020
C1733       C  0.08076491  0.64312799  0.27177348    -0.11710
C1734       C  0.11020692  0.65090059  0.27171900     0.02220
H1735       H  0.10557233  0.71005227  0.22679436     0.15200
H1736       H  0.07388840  0.62372881  0.28333192     0.15200
C1737       C  0.13035252  0.63251631  0.28740452     0.36860
C1738       C  0.04922002  0.69998623  0.22204643     0.36760
N1739       N  0.14646375  0.61768468  0.29989291    -0.43490
N1740       N  0.03291823  0.71337408  0.20824787    -0.43480
C1741       C  0.37779916  0.82560177  0.25194935     0.00100
C1742       C  0.39108334  0.83520404  0.22613459    -0.11770
C1743       C  0.41974960  0.84561447  0.22624511     0.02340
C1744       C  0.43683296  0.84353773  0.25180827     0.00020
C1745       C  0.42369645  0.83293466  0.27732654    -0.11710
C1746       C  0.39411644  0.82630101  0.27807068     0.02220
H1747       H  0.37854234  0.83623484  0.20612045     0.15200
H1748       H  0.43595984  0.83246181  0.29754847     0.15200
C1749       C  0.38030739  0.82498901  0.30626961     0.36860
C1750       C  0.42918028  0.86215859  0.20133803     0.36760
N1751       N  0.36877991  0.82529366  0.32865276    -0.43490
N1752       N  0.43558288  0.87638970  0.18158826    -0.43480
C1753       C  0.16882486  0.57717853  0.87992739     0.00100
C1754       C  0.16179763  0.54864758  0.88816218    -0.11770
C1755       C  0.18301975  0.52661901  0.88814427     0.02340
C1756       C  0.21181776  0.53299408  0.87927036     0.00020
C1757       C  0.21850472  0.56156493  0.87066790    -0.11710
C1758       C  0.19743957  0.58351299  0.87097360     0.02220
H1759       H  0.13979617  0.54370017  0.89500530     0.15200
H1760       H  0.24029954  0.56673979  0.86333789     0.15200
C1761       C  0.20550613  0.61222962  0.86105757     0.36860
C1762       C  0.17485502  0.49806901  0.89837512     0.36760
N1763       N  0.21197596  0.63518674  0.85299112    -0.43490
N1764       N  0.16823597  0.47517582  0.90651045    -0.43480
C1765       C  0.08343860  0.62499654  0.83000974     0.00100
C1766       C  0.05939808  0.64386487  0.83274446    -0.11770
C1767       C  0.03830392  0.64658270  0.81081549     0.02340
C1768       C  0.03763290  0.62669775  0.78704391     0.00020
C1769       C  0.06128656  0.60721553  0.78474108    -0.11710
C1770       C  0.08479692  0.60779443  0.80430381     0.02220
H1771       H  0.05702470  0.65753067  0.85180870     0.15200
H1772       H  0.06230386  0.59158181  0.76713609     0.15200
C1773       C  0.11065626  0.59221895  0.79562170     0.36860
C1774       C  0.01960413  0.67179035  0.81264276     0.36760
N1775       N  0.13132641  0.57985201  0.78830219    -0.43490
N1776       N  0.00493982  0.69221259  0.81430401    -0.43480
C1777       C  0.16894959  0.74930289  0.12334251     0.00100
C1778       C  0.15743784  0.72356088  0.11113125    -0.11770
C1779       C  0.14545958  0.72321099  0.08290209     0.02340
C1780       C  0.14573003  0.74878327  0.06582005     0.00020
C1781       C  0.15833690  0.77405313  0.07766004    -0.11710
C1782       C  0.16870226  0.77491472  0.10621115     0.02220
H1783       H  0.15718295  0.70369270  0.12386721     0.15200
H1784       H  0.15906512  0.79387181  0.06482978     0.15200
C1785       C  0.17664028  0.80309955  0.11769163     0.36860
C1786       C  0.13181560  0.69679023  0.07275872     0.36760
N1787       N  0.18225171  0.82586436  0.12691256    -0.43490
N1788       N  0.12089249  0.67556828  0.06468477    -0.43480
C1789       C  0.12458678  0.71382757  0.96321527     0.00100
C1790       C  0.15192805  0.70545156  0.95259854    -0.11770
C1791       C  0.15446829  0.68460000  0.93033532     0.02340
C1792       C  0.12922653  0.67138476  0.91854901     0.00020
C1793       C  0.10192308  0.67989519  0.92938162    -0.11710
C1794       C  0.09942598  0.70084579  0.95137895     0.02220
H1795       H  0.17133182  0.71556004  0.96147103     0.15200
H1796       H  0.08236276  0.66963560  0.92104195     0.15200
C1797       C  0.07081295  0.70775562  0.96228098     0.36860
C1798       C  0.18314641  0.67801758  0.91948491     0.36760
N1799       N  0.04785346  0.71309998  0.97104554    -0.43490
N1800       N  0.20626284  0.67285024  0.91103332    -0.43480
C1801       C  0.75277467  0.06017891  0.15686297     0.00100
C1802       C  0.73404578  0.08235398  0.14757718    -0.11770
C1803       C  0.73647826  0.11063053  0.15892132     0.02340
C1804       C  0.75839279  0.11710172  0.17983180     0.00020
C1805       C  0.77584811  0.09413712  0.19022599    -0.11710
C1806       C  0.77314138  0.06599406  0.17907319     0.02220
H1807       H  0.71835046  0.07786776  0.13047125     0.15200
H1808       H  0.79222575  0.09814729  0.20677815     0.15200
C1809       C  0.79208463  0.04345971  0.19020098     0.36860
C1810       C  0.71627153  0.13227681  0.14836663     0.36760
N1811       N  0.80722396  0.02536098  0.19904385    -0.43490
N1812       N  0.69989101  0.14945289  0.13990319    -0.43480
C1813       C  0.74779472  0.43743226  0.34466045     0.00100
C1814       C  0.76803641  0.41597173  0.35235209    -0.11770
C1815       C  0.76624137  0.38784858  0.34047321     0.02340
C1816       C  0.74345928  0.38081436  0.32073167     0.00020
C1817       C  0.72439384  0.40309161  0.31190307    -0.11710
C1818       C  0.72649526  0.43109421  0.32342984     0.02220
H1819       H  0.78456034  0.42086720  0.36853165     0.15200
H1820       H  0.70727273  0.39862903  0.29624171     0.15200
C1821       C  0.70608492  0.45290518  0.31349439     0.36860
C1822       C  0.78814400  0.36697075  0.34899499     0.36760
N1823       N  0.68970919  0.47032760  0.30554682    -0.43490
N1824       N  0.80583669  0.35036200  0.35578275    -0.43480
C1825       C  0.25642290  0.37790028  0.82689341     0.00100
C1826       C  0.24582743  0.40144844  0.81053110    -0.11770
C1827       C  0.24308771  0.42916356  0.82301349     0.02340
C1828       C  0.25137743  0.43355884  0.85233191     0.00020
C1829       C  0.26089078  0.40959058  0.86889683    -0.11710
C1830       C  0.26359490  0.38197269  0.85642398     0.02220
H1831       H  0.24013643  0.39824483  0.78779552     0.15200
H1832       H  0.26741931  0.41276499  0.89141177     0.15200
C1833       C  0.27590651  0.35872177  0.87367713     0.36860
C1834       C  0.23324129  0.45286874  0.80485331     0.36760
N1835       N  0.28602159  0.34014143  0.88738169    -0.43490
N1836       N  0.22518488  0.47180396  0.79029493    -0.43480
C1837       C  0.24812299  0.93448705  0.15215947     0.00100
C1838       C  0.24508489  0.91103860  0.13278732    -0.11770
C1839       C  0.24500547  0.88233617  0.14295147     0.02340
C1840       C  0.24795516  0.87682530  0.17303004     0.00020
C1841       C  0.25068008  0.90028398  0.19246381    -0.11710
C1842       C  0.25074451  0.92902808  0.18225658     0.02220
H1843       H  0.24398874  0.91518369  0.10953414     0.15200
H1844       H  0.25306505  0.89609919  0.21560948     0.15200
C1845       C  0.25507534  0.95247655  0.20277259     0.36860
C1846       C  0.24426416  0.85894603  0.12193462     0.36760
N1847       N  0.25862475  0.97132219  0.21914122    -0.43490
N1848       N  0.24400943  0.84030011  0.10496528    -0.43480
C1849       C  0.17339660  0.08016911  0.12784903     0.00100
C1850       C  0.19030765  0.07610802  0.15305493    -0.11770
C1851       C  0.21194692  0.05453527  0.15403128     0.02340
C1852       C  0.21694502  0.03678358  0.12946301     0.00020
C1853       C  0.19994996  0.04069195  0.10440302    -0.11710
C1854       C  0.17808727  0.06188933  0.10352478     0.02220
H1855       H  0.18656067  0.08977840  0.17195942     0.15200
H1856       H  0.20338175  0.02666901  0.08568433     0.15200
C1857       C  0.15955197  0.06322591  0.07811540     0.36860
C1858       C  0.22882568  0.05097494  0.18033643     0.36760
N1859       N  0.14449456  0.06402984  0.05789461    -0.43490
N1860       N  0.24238074  0.04804818  0.20140607    -0.43480
C1861       C  0.17594016  0.25203956  0.88048511     0.00100
C1862       C  0.14563651  0.25501123  0.88197251    -0.11770
C1863       C  0.13125186  0.25330792  0.90874260     0.02340
C1864       C  0.14725134  0.24790178  0.93447605     0.00020
C1865       C  0.17724298  0.24278402  0.93265951    -0.11710
C1866       C  0.19170576  0.24495228  0.90594769     0.02220
H1867       H  0.13334599  0.25995711  0.86238161     0.15200
H1868       H  0.18961642  0.23861564  0.95237805     0.15200
C1869       C  0.22266000  0.23970650  0.90518804     0.36860
C1870       C  0.10023005  0.25812339  0.90945282     0.36760
N1871       N  0.24744164  0.23539619  0.90453593    -0.43490
N1872       N  0.07539543  0.26210816  0.91003767    -0.43480
C1873       C  0.12415262  0.21290499  0.03644688     0.00100
C1874       C  0.14396688  0.18965099  0.03414693    -0.11770
C1875       C  0.14358520  0.16598408  0.05343783     0.02340
C1876       C  0.12580570  0.16665547  0.07880655     0.00020
C1877       C  0.10671799  0.19062052  0.08159448    -0.11710
C1878       C  0.10428396  0.21213962  0.06003215     0.02220
H1879       H  0.15967523  0.18923873  0.01662785     0.15200
H1880       H  0.09282831  0.19276211  0.10042531     0.15200
C1881       C  0.07959700  0.23149690  0.06198238     0.36860
C1882       C  0.16037806  0.14092721  0.04467732     0.36760
N1883       N  0.05962490  0.24675105  0.06361740    -0.43490
N1884       N  0.17406746  0.12123880  0.03696827    -0.43480
C1885       C  0.99990761  0.09067574  0.31000404     0.00100
C1886       C  0.02364320  0.09849691  0.32751810    -0.11770
C1887       C  0.02501106  0.09015399  0.35689166     0.02340
C1888       C  0.00205635  0.07364358  0.36929961     0.00020
C1889       C  0.97916585  0.06456006  0.35101787    -0.11710
C1890       C  0.97798619  0.07276709  0.32175247     0.02220
H1891       H  0.04051337  0.11233289  0.31857575     0.15200
H1892       H  0.96177101  0.05117801  0.35958972     0.15200
C1893       C  0.95377929  0.06282304  0.30425814     0.36860
C1894       C  0.04992454  0.09959750  0.37359125     0.36760
N1895       N  0.93435747  0.05494532  0.29026028    -0.43490
N1896       N  0.06998939  0.10717400  0.38682954    -0.43480
C1897       C  0.94023186  0.15512756  0.24887838     0.00100
C1898       C  0.93631614  0.17729044  0.26945190    -0.11770
C1899       C  0.90921216  0.19035393  0.27351152     0.02340
C1900       C  0.88504032  0.18132158  0.25643014     0.00020
C1901       C  0.88957464  0.16013263  0.23464198    -0.11710
C1902       C  0.91683679  0.14700324  0.23084146     0.02220
H1903       H  0.95432949  0.18335112  0.28352580     0.15200
H1904       H  0.87163304  0.15317679  0.22095064     0.15200
C1905       C  0.91988008  0.12407578  0.20953750     0.36860
C1906       C  0.90706087  0.21192636  0.29634998     0.36760
N1907       N  0.92238903  0.10570135  0.19246396    -0.43490
N1908       N  0.90550715  0.22913632  0.31471805    -0.43480
C1909       C  0.03645333  0.11919396  0.21042156     0.00100
C1910       C  0.02871691  0.11353785  0.18127550    -0.11770
C1911       C  0.04974176  0.11311986  0.15914156     0.02340
C1912       C  0.07921162  0.11825447  0.16603127     0.00020
C1913       C  0.08694053  0.12395640  0.19507660    -0.11710
C1914       C  0.06596885  0.12477997  0.21712450     0.02220
H1915       H  0.00618682  0.10914451  0.17581949     0.15200
H1916       H  0.10947971  0.12846964  0.20044377     0.15200
C1917       C  0.07523824  0.13278726  0.24613863     0.36860
C1918       C  0.04067588  0.10664905  0.12970923     0.36760
N1919       N  0.08269675  0.13920832  0.26937056    -0.43490
N1920       N  0.03341370  0.10150573  0.10610174    -0.43480
C1921       C  0.84787181  0.25016876  0.43718473     0.00100
C1922       C  0.81767057  0.24754531  0.43419770    -0.11770
C1923       C  0.80448169  0.24987083  0.40673439     0.02340
C1924       C  0.82172215  0.25478642  0.38173575     0.00020
C1925       C  0.85205703  0.25523418  0.38452916    -0.11710
C1926       C  0.86520613  0.25317404  0.41195135     0.02220
H1927       H  0.80428558  0.24508679  0.45346879     0.15200
H1928       H  0.86547289  0.25842059  0.36538263     0.15200
C1929       C  0.89650643  0.25518581  0.41377843     0.36860
C1930       C  0.77329572  0.24681894  0.40473634     0.36760
N1931       N  0.92155927  0.25696841  0.41528253    -0.43490
N1932       N  0.74832410  0.24421106  0.40309102    -0.43480
C1933       C  0.06331402  0.15232085  0.74572485     0.00100
C1934       C  0.06644413  0.17655638  0.76390633    -0.11770
C1935       C  0.09341006  0.18966731  0.76820387     0.02340
C1936       C  0.11828558  0.17881828  0.75343164     0.00020
C1937       C  0.11455920  0.15562079  0.73355803    -0.11710
C1938       C  0.08734454  0.14227980  0.72974374     0.02220
H1939       H  0.04780113  0.18429377  0.77613428     0.15200
H1940       H  0.13304932  0.14726844  0.72155069     0.15200
C1941       C  0.08478789  0.11765596  0.71037060     0.36860
C1942       C  0.09453229  0.21331381  0.78897965     0.36760
N1943       N  0.08266467  0.09798201  0.69474958    -0.43490
N1944       N  0.09523316  0.23211277  0.80577565    -0.43480
C1945       C  0.87146136  0.17223749  0.58257243     0.00100
C1946       C  0.89789846  0.18052085  0.56957970    -0.11770
C1947       C  0.89884071  0.20194698  0.54786648     0.02340
C1948       C  0.87292078  0.21531463  0.53829174     0.00020
C1949       C  0.84649348  0.20704561  0.55091275    -0.11710
C1950       C  0.84553259  0.18606589  0.57308364     0.02220
H1951       H  0.91796485  0.16998278  0.57617665     0.15200
H1952       H  0.82655871  0.21756254  0.54384407     0.15200
C1953       C  0.81772723  0.18030916  0.58636428     0.36860
C1954       C  0.92659998  0.20940485  0.53527301     0.36760
N1955       N  0.79520964  0.17596292  0.59665596    -0.43490
N1956       N  0.94884126  0.21544393  0.52521709    -0.43480
C1957       C  0.96345049  0.12408832  0.71221413     0.00100
C1958       C  0.94030878  0.14376137  0.71541374    -0.11770
C1959       C  0.91805487  0.14522072  0.69451130     0.02340
C1960       C  0.91859592  0.12645776  0.67017914     0.00020
C1961       C  0.94158947  0.10661032  0.66712851    -0.11710
C1962       C  0.96406898  0.10546781  0.68777354     0.02220
H1963       H  0.93978594  0.15815235  0.73415809     0.15200
H1964       H  0.94200722  0.09207280  0.64849231     0.15200
C1965       C  0.98731387  0.08472638  0.68374680     0.36860
C1966       C  0.89465720  0.16577002  0.69863115     0.36760
N1967       N  0.00597447  0.06812478  0.68056988    -0.43490
N1968       N  0.87588299  0.18223118  0.70187634    -0.43480
C1969       C  0.83021633  0.08094429  0.62652811     0.00100
C1970       C  0.83807800  0.05234165  0.61927068    -0.11770
C1971       C  0.81724396  0.03005991  0.61861244     0.02340
C1972       C  0.78793104  0.03631444  0.62546364     0.00020
C1973       C  0.78028281  0.06491324  0.63315386    -0.11710
C1974       C  0.80111514  0.08710025  0.63389405     0.02220
H1975       H  0.86047002  0.04753699  0.61365050     0.15200
H1976       H  0.75795778  0.06986317  0.63891652     0.15200
C1977       C  0.79234846  0.11576013  0.64337197     0.36860
C1978       C  0.82629667  0.00128967  0.60974835     0.36760
N1979       N  0.78528041  0.13860496  0.65130267    -0.43490
N1980       N  0.83354674  0.97821178  0.60269564    -0.43480
C1981       C  0.90789420  0.68961255  0.99800417     0.00100
C1982       C  0.93443772  0.68611362  0.01242515    -0.11770
C1983       C  0.94644061  0.65848792  0.01662413     0.02340
C1984       C  0.93155692  0.63338354  0.00629846     0.00020
C1985       C  0.90571219  0.63727233  0.99024907    -0.11710
C1986       C  0.89375844  0.66508310  0.98623326     0.02220
H1987       H  0.94509150  0.70502143  0.02179297     0.15200
H1988       H  0.89418535  0.61851139  0.98173024     0.15200
C1989       C  0.86623437  0.66787129  0.97130975     0.36860
C1990       C  0.97380919  0.65697030  0.03207134     0.36760
N1991       N  0.84418969  0.67014978  0.95932362    -0.43490
N1992       N  0.99569319  0.65591404  0.04452526    -0.43480
C1993       C  0.00532617  0.57098373  0.13468548     0.00100
C1994       C  0.02659234  0.56490401  0.15586930    -0.11770
C1995       C  0.02530030  0.57732444  0.18353601     0.02340
C1996       C  0.00248882  0.59661157  0.19059147     0.00020
C1997       C  0.98028770  0.60157126  0.17022302    -0.11710
C1998       C  0.98140843  0.58887248  0.14242585     0.02220
H1999       H  0.04479582  0.55079602  0.15071421     0.15200
H2000       H  0.96255989  0.61615336  0.17571238     0.15200
C2001       C  0.95758563  0.59438399  0.12263438     0.36860
C2002       C  0.04791643  0.57014172  0.20425691     0.36760
N2003       N  0.93840530  0.59873444  0.10685643    -0.43490
N2004       N  0.06607905  0.56451008  0.22081396    -0.43480
C2005       C  0.00088705  0.40428601  0.81444287     0.00100
C2006       C  0.99196569  0.38696296  0.83811781    -0.11770
C2007       C  0.98906656  0.39868259  0.86604259     0.02340
C2008       C  0.99563699  0.42818586  0.87082742     0.00020
C2009       C  0.00630835  0.44513760  0.84774784    -0.11710
C2010       C  0.00922653  0.43337014  0.81967822     0.02220
H2011       H  0.98565092  0.36450424  0.83439397     0.15200
H2012       H  0.01186244  0.46776953  0.85158025     0.15200
C2013       C  0.01950649  0.45193511  0.79656088     0.36860
C2014       C  0.97700586  0.38070339  0.88882938     0.36760
N2015       N  0.02805701  0.46689055  0.77820705    -0.43490
N2016       N  0.96708940  0.36640672  0.90702419    -0.43480
C2017       C  0.07449407  0.37073964  0.99705201     0.00100
C2018       C  0.05840931  0.34578514  0.98957377    -0.11770
C2019       C  0.07038593  0.31799468  0.99218662     0.02340
C2020       C  0.09905088  0.31461000  0.00242030     0.00020
C2021       C  0.11486066  0.33911773  0.01122497    -0.11710
C2022       C  0.10282009  0.36710174  0.00889364     0.02220
H2023       H  0.03646448  0.34791199  0.98113780     0.15200
H2024       H  0.13710414  0.33647039  0.01868307     0.15200
C2025       C  0.12065862  0.39148494  0.01757147     0.36860
C2026       C  0.05333427  0.29322041  0.98295588     0.36760
N2027       N  0.13502097  0.41093639  0.02464862    -0.43490
N2028       N  0.03976074  0.27333252  0.97555796    -0.43480
C2029       C  0.25334502  0.43660485  0.14987764     0.00100
C2030       C  0.25520082  0.43436955  0.18025489    -0.11770
C2031       C  0.25262876  0.40729254  0.19396331     0.02340
C2032       C  0.24829082  0.38192963  0.17703020     0.00020
C2033       C  0.24864806  0.38400787  0.14654580    -0.11710
C2034       C  0.25088906  0.41110009  0.13289332     0.02220
H2035       H  0.25711941  0.45396344  0.19333441     0.15200
H2036       H  0.24580310  0.36459052  0.13337993     0.15200
C2037       C  0.24951003  0.41238149  0.10146985     0.36860
C2038       C  0.25458082  0.40614031  0.22536168     0.36760
N2039       N  0.24831901  0.41345374  0.07630258    -0.43490
N2040       N  0.25624410  0.40522146  0.25051195    -0.43480
C2041       C  0.13017468  0.49697866  0.07555649     0.00100
C2042       C  0.15425226  0.50336443  0.05791725    -0.11770
C2043       C  0.18198844  0.50672784  0.07007394     0.02340
C2044       C  0.18590467  0.50322691  0.10033383     0.00020
C2045       C  0.16158684  0.49821356  0.11809304    -0.11710
C2046       C  0.13383441  0.49516676  0.10601369     0.02220
H2047       H  0.15144468  0.50523586  0.03451320     0.15200
H2048       H  0.16458326  0.49517815  0.14135533     0.15200
C2049       C  0.10995817  0.48793705  0.12507503     0.36860
C2050       C  0.20627351  0.51202363  0.05092501     0.36760
N2051       N  0.09084188  0.48202654  0.14031421    -0.43490
N2052       N  0.22574671  0.51639489  0.03562229    -0.43480
C2053       C  0.28716855  0.53742753  0.12450127     0.00100
C2054       C  0.28163118  0.56444389  0.13775381    -0.11770
C2055       C  0.30293183  0.58624434  0.13835950     0.02340
C2056       C  0.33021784  0.58116034  0.12542911     0.00020
C2057       C  0.33573789  0.55433840  0.11197587    -0.11710
C2058       C  0.31447772  0.53253612  0.11131379     0.02220
H2059       H  0.26074208  0.56836128  0.14795856     0.15200
H2060       H  0.35665068  0.55055153  0.10175794     0.15200
C2061       C  0.32082728  0.50576365  0.09608250     0.36860
C2062       C  0.29651365  0.61353032  0.15259776     0.36760
N2063       N  0.32586829  0.48432344  0.08383374    -0.43490
N2064       N  0.29141885  0.63539412  0.16404805    -0.43480
C2065       C  0.46390448  0.62534279  0.21288921     0.00100
C2066       C  0.45793472  0.59939096  0.19794090    -0.11770
C2067       C  0.43668926  0.59846132  0.17599274     0.02340
C2068       C  0.42059406  0.62380865  0.16906145     0.00020
C2069       C  0.42674884  0.64977438  0.18408312    -0.11710
C2070       C  0.44820387  0.65071998  0.20577581     0.02220
H2071       H  0.47020598  0.57990310  0.20319520     0.15200
H2072       H  0.41448033  0.66932925  0.17909650     0.15200
C2073       C  0.45322697  0.67776800  0.22100207     0.36860
C2074       C  0.43269725  0.57156952  0.16016629     0.36760
N2075       N  0.45717682  0.69943192  0.23326061    -0.43490
N2076       N  0.42950966  0.55003387  0.14745537    -0.43480
C2077       C  0.34839618  0.75274015  0.93782354     0.00100
C2078       C  0.33283448  0.77784101  0.93002401    -0.11770
C2079       C  0.32073876  0.78102184  0.90235767     0.02340
C2080       C  0.32295576  0.75813250  0.88181189     0.00020
C2081       C  0.33756676  0.73242793  0.88996422    -0.11710
C2082       C  0.35032586  0.72959942  0.91767446     0.02220
H2083       H  0.33114018  0.79573932  0.94539170     0.15200
H2084       H  0.33924297  0.71456205  0.87459337     0.15200
C2085       C  0.36622978  0.70334486  0.92437194     0.36860
C2086       C  0.30793697  0.80889653  0.89536751     0.36760
N2087       N  0.37888880  0.68224171  0.92978137    -0.43490
N2088       N  0.29796882  0.83138407  0.88993040    -0.43480
C2089       C  0.37660513  0.71162426  0.03584816     0.00100
C2090       C  0.40130332  0.69432771  0.04043090    -0.11770
C2091       C  0.40140577  0.67242859  0.06165321     0.02340
C2092       C  0.37654477  0.66790726  0.07913860     0.00020
C2093       C  0.35169728  0.68508270  0.07424101    -0.11710
C2094       C  0.35155406  0.70679864  0.05278632     0.02220
H2095       H  0.42048769  0.69781857  0.02718018     0.15200
H2096       H  0.33251184  0.68182316  0.08754031     0.15200
C2097       C  0.32579966  0.72439256  0.04903878     0.36860
C2098       C  0.42688832  0.65423114  0.06430031     0.36760
N2099       N  0.30518241  0.73853674  0.04603921    -0.43490
N2100       N  0.44726562  0.63958763  0.06640778    -0.43480
C2101       C  0.81179379  0.50352152  0.90607777     0.00100
C2102       C  0.83224685  0.48157340  0.90046678    -0.11770
C2103       C  0.86040293  0.48302232  0.91237006     0.02340
C2104       C  0.86853519  0.50712754  0.92994362     0.00020
C2105       C  0.84728446  0.52807188  0.93672907    -0.11710
C2106       C  0.81923705  0.52633900  0.92531407     0.02220
H2107       H  0.82654351  0.46381590  0.88595040     0.15200
H2108       H  0.85260757  0.54634318  0.95073822     0.15200
C2109       C  0.79853499  0.54860666  0.93342823     0.36860
C2110       C  0.88012424  0.45929376  0.90644213     0.36760
N2111       N  0.78202122  0.56650736  0.93982984    -0.43490
N2112       N  0.89580913  0.44013863  0.90180126    -0.43480
C2113       C  0.38112722  0.32300250  0.74757000     0.00100
C2114       C  0.40621423  0.30550433  0.74715088    -0.11770
C2115       C  0.43390609  0.31777777  0.75011501     0.02340
C2116       C  0.43685028  0.34811260  0.75338127     0.00020
C2117       C  0.41185895  0.36554093  0.75491848    -0.11710
C2118       C  0.38410292  0.35329640  0.75226161     0.02220
H2119       H  0.40422098  0.28218452  0.74398870     0.15200
H2120       H  0.41414382  0.38897590  0.75680264     0.15200
C2121       C  0.35931518  0.37261497  0.75238307     0.36860
C2122       C  0.45904470  0.29906652  0.74798026     0.36760
N2123       N  0.33947405  0.38812239  0.75245435    -0.43490
N2124       N  0.47917255  0.28404835  0.74625586    -0.43480
C2125       C  0.67204813  0.41875490  0.87365934     0.00100
C2126       C  0.67462425  0.43786106  0.89742981    -0.11770
C2127       C  0.69589245  0.45971129  0.89774469     0.02340
C2128       C  0.71519207  0.46252017  0.87409301     0.00020
C2129       C  0.71286003  0.44330686  0.85045099    -0.11710
C2130       C  0.69157060  0.42146036  0.85009070     0.02220
H2131       H  0.65965983  0.43598387  0.91556419     0.15200
H2132       H  0.72777912  0.44534820  0.83229709     0.15200
C2133       C  0.69073303  0.40153369  0.82575773     0.36860
C2134       C  0.69713031  0.47945921  0.92220162     0.36760
N2135       N  0.69009503  0.38548674  0.80631668    -0.43490
N2136       N  0.69809663  0.49537580  0.94173504    -0.43480
C2137       C  0.58136934  0.37609499  0.82988032     0.00100
C2138       C  0.57553477  0.35045714  0.81417116    -0.11770
C2139       C  0.55387593  0.34975419  0.79262785     0.02340
C2140       C  0.53758714  0.37501487  0.78644035     0.00020
C2141       C  0.54330181  0.40063907  0.80203360    -0.11710
C2142       C  0.56480882  0.40134595  0.82374901     0.02220
H2143       H  0.58814324  0.33097564  0.81857122     0.15200
H2144       H  0.53058450  0.42002424  0.79751597     0.15200
C2145       C  0.56854423  0.42786301  0.84025032     0.36860
C2146       C  0.54906030  0.32304667  0.77675402     0.36760
N2147       N  0.57150297  0.44909659  0.85351277    -0.43490
N2148       N  0.54524495  0.30166807  0.76396455    -0.43480
C2149       C  0.65568442  0.24472353  0.06065186     0.00100
C2150       C  0.65377800  0.26831454  0.07997371    -0.11770
C2151       C  0.66669622  0.26698529  0.10769054     0.02340
C2152       C  0.68170384  0.24149406  0.11649870     0.00020
C2153       C  0.68495867  0.21869775  0.09636399    -0.11710
C2154       C  0.67229724  0.22011489  0.06873915     0.02220
H2155       H  0.64138656  0.28743919  0.07375525     0.15200
H2156       H  0.69700373  0.19929916  0.10236497     0.15200
C2157       C  0.67656314  0.19583605  0.04914747     0.36860
C2158       C  0.66470946  0.29230901  0.12623923     0.36760
N2159       N  0.67983631  0.17631988  0.03353241    -0.43490
N2160       N  0.66325349  0.31268605  0.14101187    -0.43480
C2161       C  0.62484991  0.28864096  0.96406071     0.00100
C2162       C  0.62648987  0.28039447  0.93454703    -0.11770
C2163       C  0.62676127  0.30118209  0.91222371     0.02340
C2164       C  0.62596408  0.33111101  0.91912455     0.00020
C2165       C  0.62494955  0.33951892  0.94851313    -0.11710
C2166       C  0.62403435  0.31872700  0.97088859     0.02220
H2167       H  0.62764476  0.25751773  0.92880781     0.15200
H2168       H  0.62410426  0.36249088  0.95396416     0.15200
C2169       C  0.62088907  0.32902932  0.00044609     0.36860
C2170       C  0.62842522  0.29121251  0.88241412     0.36760
N2171       N  0.61846853  0.33736780  0.02412066    -0.43490
N2172       N  0.62961348  0.28322845  0.85852255    -0.43480
C2173       C  0.62539536  0.00111474  0.92111260     0.00100
C2174       C  0.64629835  0.01523979  0.93850530    -0.11770
C2175       C  0.67575411  0.01481543  0.93099304     0.02340
C2176       C  0.68479001  0.99992480  0.90578256     0.00020
C2177       C  0.66415439  0.98538052  0.88861517    -0.11710
C2178       C  0.63461448  0.98590797  0.89595985     0.02220
H2179       H  0.63962459  0.02669114  0.95806677     0.15200
H2180       H  0.67100709  0.97476337  0.86864216     0.15200
C2181       C  0.61415027  0.97233646  0.87628344     0.36860
C2182       C  0.69632400  0.03026721  0.94908512     0.36760
N2183       N  0.59773535  0.96161029  0.86043208    -0.43490
N2184       N  0.71285543  0.04261433  0.96356159    -0.43480
C2185       C  0.37329224  0.00035076  0.08014288     0.00100
C2186       C  0.35259623  0.98232939  0.06655494    -0.11770
C2187       C  0.32373214  0.98177245  0.07598023     0.02340
C2188       C  0.31500337  0.99942448  0.09953561     0.00020
C2189       C  0.33521662  0.01815306  0.11257987    -0.11710
C2190       C  0.36419257  0.01874302  0.10323173     0.02220
H2191       H  0.35892716  0.96856451  0.04842434     0.15200
H2192       H  0.32862886  0.03139194  0.13101588     0.15200
C2193       C  0.38421443  0.03733005  0.11881558     0.36860
C2194       C  0.30340457  0.96284156  0.06120304     0.36760
N2195       N  0.40021029  0.05221056  0.13138560    -0.43490
N2196       N  0.28708953  0.94769835  0.04939148    -0.43480
C2197       C  0.57049690  0.13221136  0.99428132     0.00100
C2198       C  0.55740024  0.15169664  0.01399337    -0.11770
C2199       C  0.56617182  0.18077576  0.01562354     0.02340
C2200       C  0.58832242  0.19101374  0.99716468     0.00020
C2201       C  0.60033819  0.17221273  0.97636079    -0.11710
C2202       C  0.59179579  0.14298692  0.97480481     0.02220
H2203       H  0.54055864  0.14412118  0.02864237     0.15200
H2204       H  0.61778961  0.17994432  0.96251352     0.15200
C2205       C  0.60672168  0.12439203  0.95432322     0.36860
C2206       C  0.55269422  0.19957484  0.03692690     0.36760
N2207       N  0.61879675  0.10954825  0.93793820    -0.43490
N2208       N  0.54191400  0.21463173  0.05400595    -0.43480
C2209       C  0.41006064  0.81032919  0.00367940     0.00100
C2210       C  0.39651401  0.82986104  0.02279674    -0.11770
C2211       C  0.40463727  0.85926053  0.02355088     0.02340
C2212       C  0.42699413  0.86945554  0.00496170     0.00020
C2213       C  0.44143073  0.84935894  0.98691999    -0.11710
C2214       C  0.43314516  0.82010673  0.98611889     0.02220
H2215       H  0.37832421  0.82249203  0.03586376     0.15200
H2216       H  0.45904184  0.85655973  0.97300678     0.15200
C2217       C  0.44808999  0.80059688  0.96650489     0.36860
C2218       C  0.38827163  0.87860449  0.04215561     0.36760
N2219       N  0.46000574  0.78493734  0.95078150    -0.43490
N2220       N  0.37505434  0.89405837  0.05702202    -0.43480
C2221       C  0.32702192  0.74864636  0.37987043     0.00100
C2222       C  0.30879708  0.73808475  0.40200928    -0.11770
C2223       C  0.31791150  0.73807202  0.43115233     0.02340
C2224       C  0.34531941  0.74958184  0.43859780     0.00020
C2225       C  0.36348818  0.76022377  0.41660191    -0.11710
C2226       C  0.35484967  0.75929781  0.38735261     0.02220
H2227       H  0.28754252  0.72945131  0.39647589     0.15200
H2228       H  0.38525599  0.76748002  0.42215014     0.15200
C2229       C  0.37628205  0.76585749  0.36543402     0.36860
C2230       C  0.29943694  0.72497893  0.45289905     0.36760
N2231       N  0.39405080  0.77025469  0.34819021    -0.43490
N2232       N  0.28477827  0.71427516  0.47032291    -0.43480
C2233       C  0.49561059  0.90129318  0.81393324     0.00100
C2234       C  0.49893780  0.93122068  0.81873164    -0.11770
C2235       C  0.49859145  0.94251095  0.84709587     0.02340
C2236       C  0.49451225  0.92365362  0.87105641     0.00020
C2237       C  0.48985622  0.89391712  0.86607940    -0.11710
C2238       C  0.49081670  0.88257409  0.83780347     0.02220
H2239       H  0.50287123  0.94557724  0.80040589     0.15200
H2240       H  0.48668382  0.87936566  0.88440472     0.15200
C2241       C  0.48800263  0.85151015  0.83381631     0.36860
C2242       C  0.50221537  0.97349130  0.85107428     0.36760
N2243       N  0.48593894  0.82661355  0.83055903    -0.43490
N2244       N  0.50503445  0.99832310  0.85426891    -0.43480
C2245       C  0.46190998  0.87453719  0.71300414     0.00100
C2246       C  0.43287705  0.87001133  0.72158316    -0.11770
C2247       C  0.41012550  0.86986596  0.70121122     0.02340
C2248       C  0.41614850  0.87362833  0.67135934     0.00020
C2249       C  0.44502912  0.87776445  0.66256509    -0.11710
C2250       C  0.46777359  0.87867153  0.68295866     0.02220
H2251       H  0.42786098  0.86633208  0.74435846     0.15200
H2252       H  0.44972923  0.88101778  0.63963766     0.15200
C2253       C  0.49656773  0.88521162  0.67235508     0.36860
C2254       C  0.38090431  0.86510391  0.71150462     0.36760
N2255       N  0.51961873  0.89033800  0.66370962    -0.43490
N2256       N  0.35761904  0.86121426  0.72013116    -0.43480
C2257       C  0.37162928  0.82986218  0.58144332     0.00100
C2258       C  0.39817037  0.81972844  0.57002276    -0.11770
C2259       C  0.39898286  0.79759034  0.54897802     0.02340
C2260       C  0.37284363  0.78545576  0.53837851     0.00020
C2261       C  0.34633391  0.79558029  0.54948551    -0.11710
C2262       C  0.34546634  0.81716486  0.57108240     0.02220
H2263       H  0.41844594  0.82928961  0.57738525     0.15200
H2264       H  0.32618923  0.78603004  0.54170592     0.15200
C2265       C  0.31743798  0.82472522  0.58302289     0.36860
C2266       C  0.42689790  0.78814550  0.53816300     0.36760
N2267       N  0.29492124  0.83078873  0.59246137    -0.43490
N2268       N  0.44928698  0.78049826  0.52961059    -0.43480
C2269       C  0.24378415  0.11788052  0.67721557     0.00100
C2270       C  0.22114476  0.09772568  0.68096166    -0.11770
C2271       C  0.22201820  0.07039018  0.66780077     0.02340
C2272       C  0.24575446  0.06269273  0.64987609     0.00020
C2273       C  0.26917462  0.08204377  0.64724267    -0.11710
C2274       C  0.26850180  0.10942179  0.66085549     0.02220
H2275       H  0.20228929  0.10342291  0.69393319     0.15200
H2276       H  0.28768549  0.07606167  0.63390990     0.15200
C2277       C  0.29369942  0.12793863  0.65812422     0.36860
C2278       C  0.19817447  0.05061268  0.67316000     0.36760
N2279       N  0.31399215  0.14267081  0.65606365    -0.43490
N2280       N  0.17901709  0.03484447  0.67732289    -0.43480
C2281       C  0.12867567  0.99652911  0.57314268     0.00100
C2282       C  0.14893677  0.01167803  0.55596397    -0.11770
C2283       C  0.17843252  0.01214535  0.56337045     0.02340
C2284       C  0.18817369  0.99718108  0.58829882     0.00020
C2285       C  0.16830034  0.98110135  0.60488265    -0.11710
C2286       C  0.13870832  0.98067801  0.59761019     0.02220
H2287       H  0.14168676  0.02346884  0.53680149     0.15200
H2288       H  0.17567221  0.97029716  0.62458172     0.15200
C2289       C  0.11900472  0.96558811  0.61684420     0.36860
C2290       C  0.19827151  0.02874593  0.54557942     0.36760
N2291       N  0.10323681  0.95359248  0.63235277    -0.43490
N2292       N  0.21420535  0.04199742  0.53132111    -0.43480
C2293       C  0.28765113  0.96602847  0.62030239     0.00100
C2294       C  0.28866332  0.94787756  0.64479949    -0.11770
C2295       C  0.30936067  0.92557659  0.64691273     0.02340
C2296       C  0.32986589  0.92149057  0.62438291     0.00020
C2297       C  0.32883397  0.93981958  0.59988431    -0.11710
C2298       C  0.30789907  0.96192036  0.59767359     0.02220
H2299       H  0.27276433  0.95072597  0.66199730     0.15200
H2300       H  0.34438559  0.93678120  0.58241039     0.15200
C2301       C  0.30749950  0.98011743  0.57203303     0.36860
C2302       C  0.30787636  0.90615075  0.67155297     0.36760
N2303       N  0.30712079  0.99472404  0.55149775    -0.43490
N2304       N  0.30619040  0.89057709  0.69127462    -0.43480
C2305       C  0.43454016  0.14892801  0.24539485     0.00100
C2306       C  0.42818950  0.16630189  0.22100602    -0.11770
C2307       C  0.40079693  0.17847357  0.21678252     0.02340
C2308       C  0.37895878  0.17476760  0.23812622     0.00020
C2309       C  0.38562091  0.15842257  0.26330486    -0.11710
C2310       C  0.41310419  0.14543252  0.26703120     0.02220
H2311       H  0.44460511  0.16947672  0.20434568     0.15200
H2312       H  0.36929437  0.15561295  0.28007369     0.15200
C2313       C  0.41834143  0.12797403  0.29262914     0.36860
C2314       C  0.39563664  0.19320711  0.18941614     0.36760
N2315       N  0.42256270  0.11411165  0.31325925    -0.43490
N2316       N  0.39162955  0.20479349  0.16738002    -0.43480
C2317       C  0.50518151  0.09830597  0.18479143     0.00100
C2318       C  0.50019473  0.06871000  0.17943751    -0.11770
C2319       C  0.49974636  0.05795969  0.15091831     0.02340
C2320       C  0.50456201  0.07705775  0.12731313     0.00020
C2321       C  0.51100690  0.10638904  0.13282242    -0.11710
C2322       C  0.51087395  0.11721661  0.16132074     0.02220
H2323       H  0.49536685  0.05427637  0.19748858     0.15200
H2324       H  0.51478239  0.12111595  0.11475732     0.15200
C2325       C  0.51480090  0.14806873  0.16591336     0.36860
C2326       C  0.49440456  0.02729164  0.14645025     0.36760
N2327       N  0.51773393  0.17280819  0.16966003    -0.43490
N2328       N  0.49019350  0.00270630  0.14290079    -0.43480
C2329       C  0.62948334  0.21624258  0.46165321     0.00100
C2330       C  0.60289432  0.20454886  0.45240803    -0.11770
C2331       C  0.60179683  0.18304061  0.43077072     0.02340
C2332       C  0.62777338  0.17313455  0.41747925     0.00020
C2333       C  0.65436819  0.18534646  0.42648548    -0.11710
C2334       C  0.65539119  0.20667650  0.44837281     0.02220
H2335       H  0.58292679  0.21180330  0.46267314     0.15200
H2336       H  0.67443900  0.17820178  0.41637727     0.15200
C2337       C  0.68317246  0.21890068  0.45637106     0.36860
C2338       C  0.57382381  0.17053293  0.42380207     0.36760
N2339       N  0.70549511  0.22875929  0.46253563    -0.43490
N2340       N  0.55139273  0.16056060  0.41821608    -0.43480
C2341       C  0.58067867  0.12417628  0.33031236     0.00100
C2342       C  0.55748669  0.14444710  0.33145530    -0.11770
C2343       C  0.53628201  0.14634893  0.30942835     0.02340
C2344       C  0.53510539  0.12514063  0.28703337     0.00020
C2345       C  0.55728814  0.10403973  0.28662615    -0.11710
C2346       C  0.58069920  0.10461755  0.30617996     0.02220
H2347       H  0.55567744  0.15967548  0.34935252     0.15200
H2348       H  0.55708652  0.08706673  0.27020235     0.15200
C2349       C  0.60476663  0.08588520  0.29876343     0.36860
C2350       C  0.51766056  0.17166181  0.30963806     0.36760
N2351       N  0.62350395  0.07048283  0.29201080    -0.43490
N2352       N  0.50303866  0.19217885  0.30988796    -0.43480
C2353       C  0.87074010  0.00233369  0.42268737     0.00100
C2354       C  0.84853473  0.99510393  0.44236980    -0.11770
C2355       C  0.81935677  0.99518371  0.43360756     0.02340
C2356       C  0.81213784  0.00221675  0.40463594     0.00020
C2357       C  0.83421171  0.00995375  0.38507706    -0.11710
C2358       C  0.86337291  0.01027138  0.39389702     0.02220
H2359       H  0.85403111  0.98922893  0.46460530     0.15200
H2360       H  0.82869639  0.01468352  0.36257235     0.15200
C2361       C  0.88540604  0.01686029  0.37252583     0.36860
C2362       C  0.79724263  0.98698502  0.45431404     0.36760
N2363       N  0.90306870  0.02201018  0.35537051    -0.43490
N2364       N  0.77944382  0.98049380  0.47085890    -0.43480
C2365       C  0.70999585  0.03400089  0.38290715     0.00100
C2366       C  0.70458267  0.04931280  0.35707846    -0.11770
C2367       C  0.68369906  0.07145752  0.35609168     0.02340
C2368       C  0.66695830  0.07796551  0.38107651     0.00020
C2369       C  0.67261471  0.06280621  0.40708091    -0.11710
C2370       C  0.69410576  0.04107146  0.40819745     0.02220
H2371       H  0.71732082  0.04444799  0.33780371     0.15200
H2372       H  0.66022304  0.06795096  0.42649267     0.15200
C2373       C  0.69939940  0.02614473  0.43536414     0.36860
C2374       C  0.68133500  0.08853429  0.32977790     0.36760
N2375       N  0.70375630  0.01418168  0.45712686    -0.43490
N2376       N  0.67980988  0.10243089  0.30880340    -0.43480
C2377       C  0.18695860  0.99985616  0.90312711     0.00100
C2378       C  0.17642815  0.97754338  0.92105286    -0.11770
C2379       C  0.14758902  0.97714150  0.93050186     0.02340
C2380       C  0.12827481  0.99985573  0.92228254     0.00020
C2381       C  0.13933440  0.02297984  0.90543316    -0.11710
C2382       C  0.16828108  0.02310213  0.89577464     0.02220
H2383       H  0.19075315  0.95971385  0.92703016     0.15200
H2384       H  0.12517937  0.04079013  0.89912492     0.15200
C2385       C  0.17775616  0.04653713  0.87714227     0.36860
C2386       C  0.13885698  0.95273602  0.94828775     0.36760
N2387       N  0.18538078  0.06537362  0.86227842    -0.43490
N2388       N  0.13216797  0.93300292  0.96242449    -0.43480
C2389       C  0.00214985  0.92122260  0.12538541     0.00100
C2390       C  0.98735378  0.93689960  0.14705383    -0.11770
C2391       C  0.98716744  0.92733607  0.17591918     0.02340
C2392       C  0.00184026  0.90149963  0.18360515     0.00020
C2393       C  0.01747191  0.88623215  0.16236722    -0.11710
C2394       C  0.01779744  0.89584813  0.13337151     0.02220
H2395       H  0.97579460  0.95672141  0.14143780     0.15200
H2396       H  0.02833436  0.86608340  0.16820222     0.15200
C2397       C  0.03293230  0.87831257  0.11212890     0.36860
C2398       C  0.97140402  0.94415658  0.19731583     0.36760
N2399       N  0.04503933  0.86421197  0.09512409    -0.43490
N2400       N  0.95881207  0.95758941  0.21450139    -0.43480
C2401       C  0.90638958  0.18898446  0.00196945     0.00100
C2402       C  0.88824362  0.16632048  0.99209183    -0.11770
C2403       C  0.89759749  0.13744548  0.99217068     0.02340
C2404       C  0.92517869  0.13053529  0.00335123     0.00020
C2405       C  0.94297332  0.15276446  0.01453264    -0.11710
C2406       C  0.93387673  0.18197447  0.01374063     0.02220
H2407       H  0.86694772  0.17136868  0.98320259     0.15200
H2408       H  0.96433548  0.14737535  0.02302540     0.15200
C2409       C  0.95365751  0.20432195  0.02351854     0.36860
C2410       C  0.87901511  0.11545847  0.97950794     0.36760
N2411       N  0.96951471  0.22225855  0.03134939    -0.43490
N2412       N  0.86417442  0.09796634  0.96908489    -0.43480
C2413       C  0.81256195  0.99817446  0.09373962     0.00100
C2414       C  0.82162012  0.01949342  0.07391581    -0.11770
C2415       C  0.85032829  0.02062234  0.06407102     0.02340
C2416       C  0.87092146  0.99986770  0.07406615     0.00020
C2417       C  0.86132166  0.97766325  0.09293716    -0.11710
C2418       C  0.83252289  0.97676964  0.10288948     0.02220
H2419       H  0.80631356  0.03610374  0.06694984     0.15200
H2420       H  0.87653292  0.96136298  0.10070725     0.15200
C2421       C  0.82445952  0.95481965  0.12386800     0.36860
C2422       C  0.85769509  0.04363132  0.04398582     0.36760
N2423       N  0.81792159  0.93726862  0.14069851    -0.43490
N2424       N  0.86345063  0.06218946  0.02797796    -0.43480
C2425       C  0.99855362  0.10310909  0.81422266     0.00100
C2426       C  0.98701264  0.07531644  0.81948360    -0.11770
C2427       C  0.98604964  0.06402544  0.84785999     0.02340
C2428       C  0.99697003  0.08059401  0.87132608     0.00020
C2429       C  0.00709833  0.10879980  0.86639568    -0.11710
C2430       C  0.00771353  0.12030519  0.83823243     0.02220
H2431       H  0.97972012  0.06203406  0.80133923     0.15200
H2432       H  0.01479673  0.12178029  0.88461066     0.15200
C2433       C  0.01775062  0.14989565  0.83472993     0.36860
C2434       C  0.97410121  0.03533099  0.85242117     0.36760
N2435       N  0.02591963  0.17357391  0.83215349    -0.43490
N2436       N  0.96437199  0.01240300  0.85611019    -0.43480
C2437       C  0.07540817  0.87179592  0.99410455     0.00100
C2438       C  0.05923416  0.84927593  0.98129076    -0.11770
C2439       C  0.06872717  0.82027478  0.98307247     0.02340
C2440       C  0.09510075  0.81374272  0.99751668     0.00020
C2441       C  0.11174281  0.83675294  0.00910916    -0.11710
C2442       C  0.10190708  0.86545155  0.00795220     0.02220
H2443       H  0.03866137  0.85425865  0.97080492     0.15200
H2444       H  0.13226391  0.83217233  0.01988441     0.15200
C2445       C  0.11902630  0.88796755  0.02172233     0.36860
C2446       C  0.05021255  0.79774431  0.97142463     0.36760
N2447       N  0.13267815  0.90598913  0.03285187    -0.43490
N2448       N  0.03517406  0.77988338  0.96197373    -0.43480
C2449       C  0.50259165  0.39768747  0.68510872     0.00100
C2450       C  0.50961244  0.42708645  0.68075624    -0.11770
C2451       C  0.51037201  0.43882042  0.65256819     0.02340
C2452       C  0.50425152  0.42090771  0.62836073     0.00020
C2453       C  0.49856983  0.39131261  0.63255284    -0.11710
C2454       C  0.49763667  0.37958383  0.66063149     0.02220
H2455       H  0.51344720  0.44108629  0.69941608     0.15200
H2456       H  0.49429808  0.37746780  0.61385984     0.15200
C2457       C  0.49133642  0.34893376  0.66378748     0.36860
C2458       C  0.51729255  0.46925796  0.64892128     0.36760
N2459       N  0.48614420  0.32442492  0.66638072    -0.43490
N2460       N  0.52292980  0.49362520  0.64595407    -0.43480
C2461       C  0.62825555  0.50343342  0.42306979     0.00100
C2462       C  0.65155010  0.50953622  0.44192032    -0.11770
C2463       C  0.68030254  0.50880295  0.43179640     0.02340
C2464       C  0.68577880  0.50221110  0.40229104     0.00020
C2465       C  0.66220784  0.49717024  0.38338222    -0.11710
C2466       C  0.63369582  0.49718072  0.39361253     0.02220
H2467       H  0.64728673  0.51409881  0.46471276     0.15200
H2468       H  0.66623192  0.49185282  0.36071035     0.15200
C2469       C  0.61065292  0.48868260  0.37395594     0.36860
C2470       C  0.70372161  0.51305356  0.45234439     0.36760
N2471       N  0.59236348  0.48148801  0.35816579    -0.43490
N2472       N  0.72250633  0.51639887  0.46882393    -0.43480
C2473       C  0.42331630  0.62779880  0.50249299     0.00100
C2474       C  0.40381984  0.63656787  0.52448835    -0.11770
C2475       C  0.39243981  0.66489038  0.52516787     0.02340
C2476       C  0.40061707  0.68508830  0.50363500     0.00020
C2477       C  0.42107296  0.67691886  0.48257730    -0.11710
C2478       C  0.43246740  0.64875484  0.48174387     0.02220
H2479       H  0.39674338  0.62106699  0.54079878     0.15200
H2480       H  0.42756293  0.69254078  0.46609524     0.15200
C2481       C  0.45337045  0.64238940  0.45914851     0.36860
C2482       C  0.37127676  0.67220378  0.54717141     0.36760
N2483       N  0.47006356  0.63750559  0.44095137    -0.43490
N2484       N  0.35434408  0.67810827  0.56482819    -0.43480
C2485       C  0.58261909  0.37388847  0.49839065     0.00100
C2486       C  0.56771555  0.35140601  0.48408821    -0.11770
C2487       C  0.57861913  0.32288095  0.48422824     0.02340
C2488       C  0.60532539  0.31680623  0.49833391     0.00020
C2489       C  0.62075297  0.33991222  0.51136552    -0.11710
C2490       C  0.60939044  0.36810018  0.51195603     0.02220
H2491       H  0.54704432  0.35599437  0.47361330     0.15200
H2492       H  0.64146297  0.33575419  0.52193158     0.15200
C2493       C  0.62527277  0.39064996  0.52708181     0.36860
C2494       C  0.56113345  0.30019843  0.47127652     0.36760
N2495       N  0.63789428  0.40870378  0.53932703    -0.43490
N2496       N  0.54710724  0.28205646  0.46082801    -0.43480
C2497       C  0.37167677  0.49553685  0.57497673     0.00100
C2498       C  0.36423265  0.47925126  0.59979123    -0.11770
C2499       C  0.33567228  0.47903963  0.61033170     0.02340
C2500       C  0.31386796  0.49489583  0.59568080     0.00020
C2501       C  0.32089522  0.51015401  0.57024926    -0.11710
C2502       C  0.34941792  0.51051215  0.55969614     0.02220
H2503       H  0.38097479  0.46757812  0.61168730     0.15200
H2504       H  0.30414204  0.52253916  0.55909134     0.15200
C2505       C  0.35500494  0.52620557  0.53301153     0.36860
C2506       C  0.32963213  0.46403506  0.63727649     0.36760
N2507       N  0.35943682  0.53875311  0.51161513    -0.43490
N2508       N  0.32485025  0.45217446  0.65897810    -0.43480
C2509       C  0.49819648  0.59756809  0.31348576     0.00100
C2510       C  0.52112607  0.58016078  0.32358351    -0.11770
C2511       C  0.52209701  0.57018296  0.35223080     0.02340
C2512       C  0.49886098  0.57632999  0.37155709     0.00020
C2513       C  0.47497328  0.59240876  0.36084500    -0.11710
C2514       C  0.47461532  0.60328411  0.33223276     0.02220
H2515       H  0.53926892  0.57545806  0.30922828     0.15200
H2516       H  0.45684359  0.59733630  0.37508340     0.15200
C2517       C  0.45066025  0.62153640  0.32328225     0.36860
C2518       C  0.54814049  0.55501361  0.36102320     0.36760
N2519       N  0.43143954  0.63614660  0.31608676    -0.43490
N2520       N  0.56938099  0.54338270  0.36786329    -0.43480
C2521       C  0.58057506  0.62672872  0.00429226     0.00100
C2522       C  0.61009033  0.63080798  0.99836613    -0.11770
C2523       C  0.62199940  0.65879192  0.99782563     0.02340
C2524       C  0.60417415  0.68327582  0.00345512     0.00020
C2525       C  0.57491833  0.67899648  0.01087334    -0.11710
C2526       C  0.56300008  0.65091021  0.01124181     0.02220
H2527       H  0.62370008  0.61212758  0.99350130     0.15200
H2528       H  0.56111932  0.69766488  0.01517440     0.15200
C2529       C  0.53269381  0.64735828  0.01853215     0.36860
C2530       C  0.65249114  0.66187766  0.99099981     0.36760
N2531       N  0.50842983  0.64447604  0.02446858    -0.43490
N2532       N  0.67687386  0.66439318  0.98538390    -0.43480
C2533       C  0.62973192  0.49540134  0.07551701     0.00100
C2534       C  0.64770612  0.51896529  0.06797673    -0.11770
C2535       C  0.67649690  0.52048834  0.07742842     0.02340
C2536       C  0.68799644  0.49841098  0.09553404     0.00020
C2537       C  0.67088705  0.47393162  0.10165789    -0.11710
C2538       C  0.64208377  0.47205408  0.09164017     0.02220
H2539       H  0.63927877  0.53660460  0.05471467     0.15200
H2540       H  0.67968266  0.45670877  0.11523455     0.15200
C2541       C  0.62597704  0.44601750  0.09861067     0.36860
C2542       C  0.69373397  0.54511895  0.06820379     0.36760
N2543       N  0.61324764  0.42500150  0.10408380    -0.43490
N2544       N  0.70740603  0.56492865  0.06085627    -0.43480
C2545       C  0.40694309  0.31245265  0.99718797     0.00100
C2546       C  0.39548847  0.33154428  0.97630189    -0.11770
C2547       C  0.40382235  0.36091511  0.97567472     0.02340
C2548       C  0.42426059  0.37159814  0.99627741     0.00020
C2549       C  0.43653155  0.35191227  0.01633721    -0.11710
C2550       C  0.42809032  0.32270646  0.01694615     0.02220
H2551       H  0.37884482  0.32381919  0.96139928     0.15200
H2552       H  0.45270870  0.35933367  0.03188317     0.15200
C2553       C  0.44109192  0.30368986  0.03840613     0.36860
C2554       C  0.38986517  0.37961741  0.95457396     0.36760
N2555       N  0.45143160  0.28844484  0.05562100    -0.43490
N2556       N  0.37859485  0.39453027  0.93764865    -0.43480
C2557       C  0.37202092  0.50442636  0.92418235     0.00100
C2558       C  0.36501824  0.51832519  0.89779641    -0.11770
C2559       C  0.33650985  0.51787530  0.88695047     0.02340
C2560       C  0.31446301  0.50387874  0.90291972     0.00020
C2561       C  0.32109052  0.49123007  0.92986365    -0.11710
C2562       C  0.34952587  0.49142334  0.94065198     0.02220
H2563       H  0.38203007  0.52851542  0.88505719     0.15200
H2564       H  0.30410760  0.48030286  0.94204022     0.15200
C2565       C  0.35484617  0.47833721  0.96878990     0.36860
C2566       C  0.33062491  0.53050586  0.85874720     0.36760
N2567       N  0.35905484  0.46787872  0.99134752    -0.43490
N2568       N  0.32589575  0.54054103  0.83610299    -0.43480
C2569       C  0.38165635  0.67646945  0.75482496     0.00100
C2570       C  0.38399940  0.64779731  0.74426465    -0.11770
C2571       C  0.41124674  0.63466641  0.74053662     0.02340
C2572       C  0.43672384  0.65039554  0.74697621     0.00020
C2573       C  0.43461703  0.67944801  0.75583307    -0.11710
C2574       C  0.40748934  0.69264658  0.75971507     0.02220
H2575       H  0.36452923  0.63520543  0.73993178     0.15200
H2576       H  0.45427482  0.69145423  0.76100928     0.15200
C2577       C  0.40708157  0.72277778  0.76875631     0.36860
C2578       C  0.41264171  0.60468236  0.73118931     0.36760
N2579       N  0.40686472  0.74691465  0.77600662    -0.43490
N2580       N  0.41384853  0.58066887  0.72365016    -0.43480
C2581       C  0.50129465  0.59494334  0.81205369     0.00100
C2582       C  0.52314549  0.60551370  0.83057321    -0.11770
C2583       C  0.52460668  0.59677629  0.85985342     0.02340
C2584       C  0.50374896  0.57698404  0.87107713     0.00020
C2585       C  0.48278856  0.56547996  0.85188686    -0.11710
C2586       C  0.48147487  0.57413333  0.82275289     0.02220
H2587       H  0.53833153  0.62163187  0.82246938     0.15200
H2588       H  0.46710498  0.54967139  0.85962172     0.15200
C2589       C  0.45937737  0.56144556  0.80425754     0.36860
C2590       C  0.54710191  0.60941312  0.87783005     0.36760
N2591       N  0.44163677  0.55135572  0.78946380    -0.43490
N2592       N  0.56520723  0.61957928  0.89212396    -0.43480
C2593       C  0.66836488  0.57992059  0.62296689     0.00100
C2594       C  0.69694097  0.58760718  0.63030297    -0.11770
C2595       C  0.71909909  0.56662947  0.63130640     0.02340
C2596       C  0.71299487  0.53722984  0.62418133     0.00020
C2597       C  0.68426572  0.52966103  0.61674696    -0.11710
C2598       C  0.66203744  0.55062925  0.61625382     0.02220
H2599       H  0.70180698  0.61002903  0.63592636     0.15200
H2600       H  0.67918627  0.50732753  0.61101805     0.15200
C2601       C  0.63299233  0.54173615  0.60825730     0.36860
C2602       C  0.74755759  0.57572141  0.64104599     0.36760
N2603       N  0.60969623  0.53465418  0.60185770    -0.43490
N2604       N  0.77034659  0.58304413  0.64886464    -0.43480
C2605       C  0.62384044  0.71534383  0.53808679     0.00100
C2606       C  0.61754294  0.68634885  0.53033393    -0.11770
C2607       C  0.61779410  0.66397608  0.55110328     0.02340
C2608       C  0.62397022  0.67034603  0.58052217     0.00020
C2609       C  0.62985377  0.69923473  0.58853557    -0.11710
C2610       C  0.63023642  0.72160206  0.56766305     0.02220
H2611       H  0.61235767  0.68109683  0.50787107     0.15200
H2612       H  0.63487216  0.70419492  0.61111037     0.15200
C2613       C  0.63877047  0.75036100  0.57704844     0.36860
C2614       C  0.61117141  0.63467177  0.54181114     0.36760
N2615       N  0.64562882  0.77339334  0.58463058    -0.43490
N2616       N  0.60592242  0.61116046  0.53441846    -0.43480
C2617       C  0.58022253  0.62409129  0.66881997     0.00100
C2618       C  0.55400325  0.60949466  0.66338358    -0.11770
C2619       C  0.53207028  0.60855811  0.68454122     0.02340
C2620       C  0.53630177  0.62235278  0.71174693     0.00020
C2621       C  0.56271092  0.63669696  0.71724442    -0.11710
C2622       C  0.58454901  0.63779132  0.69598354     0.02220
H2623       H  0.55072921  0.59874149  0.64257841     0.15200
H2624       H  0.56609881  0.64738607  0.73806159     0.15200
C2625       C  0.61114012  0.65323968  0.70235367     0.36860
C2626       C  0.50576389  0.59261238  0.67819123     0.36760
N2627       N  0.63244287  0.66566724  0.70739950    -0.43490
N2628       N  0.48468454  0.57980147  0.67316651    -0.43480
C2629       C  0.69016358  0.00214772  0.59041243     0.00100
C2630       C  0.66735683  0.01734183  0.60370242    -0.11770
C2631       C  0.63890214  0.01539733  0.59283343     0.02340
C2632       C  0.63299508  0.99772105  0.56812871     0.00020
C2633       C  0.65650131  0.98396464  0.55404123    -0.11710
C2634       C  0.68474643  0.98594897  0.56499546     0.02220
H2635       H  0.67154011  0.02944961  0.62358714     0.15200
H2636       H  0.65285989  0.97086472  0.53471035     0.15200
C2637       C  0.70771563  0.97007444  0.55056843     0.36860
C2638       C  0.61639042  0.03091878  0.60828698     0.36760
N2639       N  0.72612448  0.95733738  0.53906318    -0.43490
N2640       N  0.59847591  0.04344835  0.62077338    -0.43480
C2641       C  0.50591143  0.07570971  0.62874021     0.00100
C2642       C  0.51125100  0.10546573  0.63252074    -0.11770
C2643       C  0.50906513  0.11825090  0.66010949     0.02340
C2644       C  0.50108853  0.10113033  0.68446380     0.00020
C2645       C  0.49362296  0.07184788  0.68019875    -0.11710
C2646       C  0.49600659  0.05904416  0.65258173     0.02220
H2647       H  0.51822361  0.11848592  0.61410692     0.15200
H2648       H  0.48726573  0.05863018  0.69868985     0.15200
C2649       C  0.48784816  0.02888716  0.64911488     0.36860
C2650       C  0.51588979  0.14881800  0.66302076     0.36760
N2651       N  0.48108963  0.00478900  0.64626123    -0.43490
N2652       N  0.52155127  0.17324951  0.66540304    -0.43480
C2653       C  0.49456226  0.93324215  0.36520260     0.00100
C2654       C  0.47434786  0.94140993  0.34364246    -0.11770
C2655       C  0.47621775  0.93079535  0.31522238     0.02340
C2656       C  0.49841887  0.91096810  0.30765641     0.00020
C2657       C  0.52004266  0.90449781  0.32830171    -0.11710
C2658       C  0.51851307  0.91567146  0.35681484     0.02220
H2659       H  0.45640055  0.95570649  0.34903702     0.15200
H2660       H  0.53736338  0.88951769  0.32259124     0.15200
C2661       C  0.54191251  0.90887287  0.37669669     0.36860
C2662       C  0.45426037  0.93967734  0.29445132     0.36760
N2663       N  0.56083347  0.90361080  0.39251101    -0.43490
N2664       N  0.43654094  0.94658661  0.27789849    -0.43480
C2665       C  0.60006329  0.81622245  0.49898274     0.00100
C2666       C  0.57027577  0.81940024  0.50470740    -0.11770
C2667       C  0.55673094  0.84667079  0.50211221     0.02340
C2668       C  0.57312750  0.87125116  0.49369499     0.00020
C2669       C  0.60318223  0.86848087  0.49002464    -0.11710
C2670       C  0.61672291  0.84132784  0.49248468     0.02220
H2671       H  0.55736112  0.80039310  0.51000439     0.15200
H2672       H  0.61597702  0.88743676  0.48422258     0.15200
C2673       C  0.64770047  0.83980032  0.48758974     0.36860
C2674       C  0.52615703  0.84905621  0.50876120     0.36760
N2675       N  0.67247737  0.83874244  0.48342046    -0.43490
N2676       N  0.50171808  0.85102788  0.51436753    -0.43480
C2677       C  0.36735967  0.00553732  0.43115201     0.00100
C2678       C  0.34361174  0.01352667  0.44882913    -0.11770
C2679       C  0.31502270  0.01109591  0.43875093     0.02340
C2680       C  0.30970597  0.00023817  0.41063834     0.00020
C2681       C  0.33301640  0.99064236  0.39352854    -0.11710
C2682       C  0.36170803  0.99311064  0.40346254     0.02220
H2683       H  0.34732864  0.02245283  0.47040344     0.15200
H2684       H  0.32884038  0.98280229  0.37159758     0.15200
C2685       C  0.38467241  0.98442154  0.38391348     0.36860
C2686       C  0.29155236  0.02124603  0.45697904     0.36760
N2687       N  0.40293624  0.97743474  0.36808149    -0.43490
N2688       N  0.27273347  0.02937131  0.47157409    -0.43480
C2689       C  0.10086343  0.68584068  0.49958765     0.00100
C2690       C  0.11769871  0.66135388  0.50691939    -0.11770
C2691       C  0.10493423  0.63404265  0.51053010     0.02340
C2692       C  0.07487045  0.63066850  0.50591616     0.00020
C2693       C  0.05808737  0.65484732  0.49760169    -0.11710
C2694       C  0.07081832  0.68238813  0.49446650     0.02220
H2695       H  0.14071338  0.66396803  0.51147210     0.15200
H2696       H  0.03489699  0.65228966  0.49409545     0.15200
C2697       C  0.05236619  0.70695051  0.48784069     0.36860
C2698       C  0.12251686  0.61061769  0.52196067     0.36760
N2699       N  0.03756968  0.72664510  0.48255073    -0.43490
N2700       N  0.13646633  0.59205847  0.53175093    -0.43480
C2701       C  0.99427799  0.57282131  0.63096519     0.00100
C2702       C  0.97435730  0.56473319  0.65267358    -0.11770
C2703       C  0.97610523  0.57610461  0.68073610     0.02340
C2704       C  0.99780245  0.59670259  0.68773928     0.00020
C2705       C  0.01885277  0.60368876  0.66684282    -0.11710
C2706       C  0.01747485  0.59174424  0.63864948     0.02220
H2707       H  0.95686116  0.54969047  0.64773719     0.15200
H2708       H  0.03577817  0.61921996  0.67223765     0.15200
C2709       C  0.04031004  0.59910618  0.61842524     0.36860
C2710       C  0.95488228  0.56660978  0.70191013     0.36760
N2711       N  0.05876471  0.60488732  0.60233639    -0.43490
N2712       N  0.93781450  0.55914858  0.71881710    -0.43480
C2713       C  0.86809812  0.49629835  0.56940575     0.00100
C2714       C  0.84599132  0.47695494  0.56080220    -0.11770
C2715       C  0.81813636  0.47871172  0.57254945     0.02340
C2716       C  0.81169607  0.49998516  0.59374079     0.00020
C2717       C  0.83293770  0.52054063  0.60122843    -0.11710
C2718       C  0.86096534  0.51905683  0.58913876     0.02220
H2719       H  0.85050040  0.45979352  0.54520779     0.15200
H2720       H  0.82796165  0.53706056  0.61737619     0.15200
C2721       C  0.88167739  0.54117416  0.59747067     0.36860
C2722       C  0.79659272  0.45786297  0.56299173     0.36760
N2723       N  0.89816755  0.55902977  0.60408985    -0.43490
N2724       N  0.77934973  0.44114714  0.55540579    -0.43480
C2725       C  0.00560921  0.42712428  0.36948191     0.00100
C2726       C  0.01228372  0.39756232  0.36646250    -0.11770
C2727       C  0.01046333  0.38399325  0.33926000     0.02340
C2728       C  0.00156694  0.40014873  0.31452397     0.00020
C2729       C  0.99275654  0.42917178  0.31806810    -0.11710
C2730       C  0.99473599  0.44275180  0.34534256     0.02220
H2731       H  0.01998023  0.38534062  0.38518289     0.15200
H2732       H  0.98562655  0.44161766  0.29928586     0.15200
C2733       C  0.98516176  0.47256202  0.34818746     0.36860
C2734       C  0.01861456  0.35367338  0.33715142     0.36760
N2735       N  0.97723616  0.49636147  0.35055157    -0.43490
N2736       N  0.02537716  0.32946441  0.33539616    -0.43480
C2737       C  0.90444558  0.31342399  0.50194707     0.00100
C2738       C  0.92892600  0.31654863  0.48425219    -0.11770
C2739       C  0.94201588  0.34362227  0.48028727     0.02340
C2740       C  0.93051522  0.36863694  0.49446213     0.00020
C2741       C  0.90677293  0.36497499  0.51351512    -0.11710
C2742       C  0.89367057  0.33766190  0.51723641     0.02220
H2743       H  0.93699801  0.29781652  0.47228625     0.15200
H2744       H  0.89783674  0.38358352  0.52497058     0.15200
C2745       C  0.86836552  0.33525188  0.53561828     0.36860
C2746       C  0.96656183  0.34466699  0.46070603     0.36760
N2747       N  0.84809903  0.33327151  0.55037730    -0.43490
N2748       N  0.98615038  0.34531145  0.44493134    -0.43480
C2749       C  0.18772764  0.49773910  0.40121364     0.00100
C2750       C  0.18454458  0.51742873  0.42421003    -0.11770
C2751       C  0.15769246  0.52173984  0.43758606     0.02340
C2752       C  0.13297540  0.50573658  0.42815695     0.00020
C2753       C  0.13669586  0.48490535  0.40584336    -0.11710
C2754       C  0.16375280  0.48093948  0.39229785     0.02220
H2755       H  0.20301001  0.53061906  0.43079823     0.15200
H2756       H  0.11832610  0.47209882  0.39841635     0.15200
C2757       C  0.16611164  0.46066570  0.36838051     0.36860
C2758       C  0.15647999  0.54380643  0.45992895     0.36760
N2759       N  0.16807073  0.44442687  0.34919594    -0.43490
N2760       N  0.15592228  0.56167622  0.47767768    -0.43480
C2761       C  0.25175102  0.61861674  0.32502184     0.00100
C2762       C  0.23284250  0.59895591  0.31107788    -0.11770
C2763       C  0.23212616  0.56959413  0.31895056     0.02340
C2764       C  0.25065012  0.55921713  0.34112271     0.00020
C2765       C  0.27037266  0.57835790  0.35435424    -0.11710
C2766       C  0.27104810  0.60788009  0.34665349     0.02220
H2767       H  0.21830399  0.60653184  0.29404869     0.15200
H2768       H  0.28418759  0.57052558  0.37187597     0.15200
C2769       C  0.29058744  0.62671065  0.36256338     0.36860
C2770       C  0.21177958  0.55054197  0.30436919     0.36760
N2771       N  0.30621668  0.64175155  0.37540521    -0.43490
N2772       N  0.19546418  0.53525259  0.29275258    -0.43480
C2773       C  0.32955904  0.41686284  0.37078220     0.00100
C2774       C  0.32367970  0.43323219  0.39598922    -0.11770
C2775       C  0.30188581  0.45457515  0.39608629     0.02340
C2776       C  0.28553927  0.45988545  0.37061694     0.00020
C2777       C  0.29123058  0.44355708  0.34545665    -0.11710
C2778       C  0.31283146  0.42201083  0.34538193     0.02220
H2779       H  0.33643030  0.42958923  0.41556479     0.15200
H2780       H  0.27847019  0.44742350  0.32592467     0.15200
C2781       C  0.31656210  0.40474835  0.31934294     0.36860
C2782       C  0.29712627  0.47127077  0.42231650     0.36760
N2783       N  0.31950643  0.39089102  0.29848650    -0.43490
N2784       N  0.29331997  0.48470392  0.44330690    -0.43480
C2785       C  0.34732874  0.25491009  0.56443260     0.00100
C2786       C  0.32260964  0.23746132  0.56716187    -0.11770
C2787       C  0.30997613  0.23240300  0.59428858     0.02340
C2788       C  0.32208972  0.24533198  0.61971947     0.00020
C2789       C  0.34594603  0.26433042  0.61649255    -0.11710
C2790       C  0.35868786  0.26901130  0.58915303     0.02220
H2791       H  0.31412879  0.22634552  0.54806565     0.15200
H2792       H  0.35532878  0.27487813  0.63544771     0.15200
C2793       C  0.38421398  0.28714509  0.58713267     0.36860
C2794       C  0.28522458  0.21304985  0.59492878     0.36760
N2795       N  0.40465633  0.30171540  0.58549336    -0.43490
N2796       N  0.26549373  0.19742851  0.59524832    -0.43480
C2797       C  0.40236524  0.18887253  0.50187301     0.00100
C2798       C  0.43105171  0.18507528  0.49226654    -0.11770
C2799       C  0.44407963  0.15748764  0.49285404     0.02340
C2800       C  0.42829590  0.13330386  0.50324779     0.00020
C2801       C  0.39903301  0.13663043  0.51065171    -0.11710
C2802       C  0.38593822  0.16406558  0.51003459     0.02220
H2803       H  0.44365644  0.20380206  0.48545315     0.15200
H2804       H  0.38668513  0.11791662  0.51800464     0.15200
C2805       C  0.35574844  0.16614148  0.51847232     0.36860
C2806       C  0.47344581  0.15434603  0.48224876     0.36760
N2807       N  0.33165516  0.16774087  0.52550767    -0.43490
N2808       N  0.49685764  0.15172046  0.47344624    -0.43480
C2809       C  0.37735398  0.28947524  0.46446840     0.00100
C2810       C  0.37250052  0.28043286  0.43551374    -0.11770
C2811       C  0.37228890  0.30046118  0.41245835     0.02340
C2812       C  0.37628095  0.33034896  0.41814737     0.00020
C2813       C  0.38098007  0.33955419  0.44688181    -0.11710
C2814       C  0.38203654  0.31951806  0.46988618     0.02220
H2815       H  0.36856253  0.25763796  0.43082055     0.15200
H2816       H  0.38449534  0.36250313  0.45125446     0.15200
C2817       C  0.38927499  0.33043584  0.49850894     0.36860
C2818       C  0.36739708  0.28993145  0.38319602     0.36760
N2819       N  0.39501652  0.33931630  0.52141295    -0.43490
N2820       N  0.36359879  0.28153473  0.35971330    -0.43480
C2821       C  0.61825795  0.31708958  0.24330254     0.00100
C2822       C  0.61480113  0.34246435  0.26025009    -0.11770
C2823       C  0.58737795  0.35521077  0.26408880     0.02340
C2824       C  0.56276728  0.34248317  0.25105504     0.00020
C2825       C  0.56573996  0.31641141  0.23560002    -0.11710
C2826       C  0.59298933  0.30352545  0.23171477     0.02220
H2827       H  0.63364590  0.35301425  0.26976991     0.15200
H2828       H  0.54674013  0.30678345  0.22536691     0.15200
C2829       C  0.59396814  0.27668985  0.21530490     0.36860
C2830       C  0.58516291  0.38219136  0.28009058     0.36760
N2831       N  0.59458164  0.25520639  0.20212595    -0.43490
N2832       N  0.58332424  0.40380369  0.29292666    -0.43480
C2833       C  0.50177150  0.40357611  0.18730997     0.00100
C2834       C  0.47652139  0.39880617  0.17080826    -0.11770
C2835       C  0.47429248  0.40888671  0.14202198     0.02340
C2836       C  0.49803164  0.42370611  0.12899506     0.00020
C2837       C  0.52259912  0.42974185  0.14629813    -0.11710
C2838       C  0.52450126  0.42023493  0.17511503     0.02220
H2839       H  0.45881835  0.38632590  0.18010734     0.15200
H2840       H  0.54068579  0.44191075  0.13734486     0.15200
C2841       C  0.55007752  0.42807254  0.19172794     0.36860
C2842       C  0.44738608  0.40347868  0.12669697     0.36760
N2843       N  0.57061009  0.43423755  0.20497776    -0.43490
N2844       N  0.42568475  0.39924560  0.11460983    -0.43480
C2845       C  0.46514748  0.37588011  0.28685384     0.00100
C2846       C  0.43925394  0.36067030  0.28131522    -0.11770
C2847       C  0.41709589  0.35961142  0.30219726     0.02340
C2848       C  0.42060590  0.37420319  0.32899263     0.00020
C2849       C  0.44635944  0.38961141  0.33449004    -0.11710
C2850       C  0.46862687  0.39050954  0.31368407     0.02220
H2851       H  0.43653010  0.34930005  0.26076298     0.15200
H2852       H  0.44899551  0.40101685  0.35503332     0.15200
C2853       C  0.49451047  0.40714854  0.31996871     0.36860
C2854       C  0.39106010  0.34321216  0.29588368     0.36760
N2855       N  0.51522945  0.42055305  0.32494334    -0.43490
N2856       N  0.37020281  0.33001554  0.29092952    -0.43480
C2857       C  0.81964843  0.75712128  0.61737768     0.00100
C2858       C  0.81277087  0.77773708  0.59578909    -0.11770
C2859       C  0.82488313  0.77613902  0.56800435     0.02340
C2860       C  0.84473339  0.75371598  0.56119163     0.00020
C2861       C  0.85053323  0.73212619  0.58197640    -0.11710
C2862       C  0.83812411  0.73350896  0.60988108     0.02220
H2863       H  0.79820166  0.79565850  0.60067079     0.15200
H2864       H  0.86558929  0.71471224  0.57672980     0.15200
C2865       C  0.84468509  0.71028781  0.63005361     0.36860
C2866       C  0.81680257  0.79806462  0.54688687     0.36760
N2867       N  0.84990278  0.69157246  0.64611601    -0.43490
N2868       N  0.81044767  0.81566682  0.52999834    -0.43480
C2869       C  0.75370783  0.61913982  0.82139000     0.00100
C2870       C  0.75237207  0.59467995  0.80295490    -0.11770
C2871       C  0.74912938  0.56660005  0.81438425     0.02340
C2872       C  0.74751215  0.56272916  0.84474041     0.00020
C2873       C  0.74724600  0.58722687  0.86304829    -0.11710
C2874       C  0.75023520  0.61529535  0.85170367     0.02220
H2875       H  0.75439490  0.59746695  0.77957716     0.15200
H2876       H  0.74637916  0.58422231  0.88648313     0.15200
C2877       C  0.75194129  0.63940406  0.87186364     0.36860
C2878       C  0.74914121  0.54202021  0.79476770     0.36760
N2879       N  0.75337803  0.65868453  0.88804975    -0.43490
N2880       N  0.74902756  0.52229494  0.77906907    -0.43480
C2881       C  0.61720590  0.82127033  0.75403465     0.00100
C2882       C  0.61523492  0.85161900  0.75115996    -0.11770
C2883       C  0.58816204  0.86533048  0.74904606     0.02340
C2884       C  0.56249145  0.84854546  0.74927937     0.00020
C2885       C  0.56443775  0.81814228  0.75022914    -0.11710
C2886       C  0.59150931  0.80438090  0.75263794     0.02220
H2887       H  0.63481194  0.86476146  0.75173723     0.15200
H2888       H  0.54471005  0.80521581  0.75036559     0.15200
C2889       C  0.59227003  0.77295190  0.75338233     0.36860
C2890       C  0.58714629  0.89671734  0.74746406     0.36760
N2891       N  0.59287482  0.74776847  0.75389683    -0.43490
N2892       N  0.58630003  0.92186525  0.74623734    -0.43480
C2893       C  0.74239344  0.88270085  0.67970869     0.00100
C2894       C  0.72160098  0.90406808  0.68659241    -0.11770
C2895       C  0.72342321  0.93211480  0.67519270     0.02340
C2896       C  0.74629522  0.93942769  0.65614082     0.00020
C2897       C  0.76804935  0.91884409  0.65039363    -0.11710
C2898       C  0.76640817  0.89064657  0.66206788     0.02220
H2899       H  0.70335291  0.89879949  0.70054706     0.15200
H2900       H  0.78575347  0.92447288  0.63587794     0.15200
C2901       C  0.78977089  0.87064173  0.65567612     0.36860
C2902       C  0.70117644  0.95293577  0.68301116     0.36760
N2903       N  0.80859562  0.85470860  0.65059485    -0.43490
N2904       N  0.68330696  0.96957069  0.68916699    -0.43480
C2905       C  0.67678031  0.74591351  0.88017352     0.00100
C2906       C  0.64638328  0.74658048  0.88238764    -0.11770
C2907       C  0.63292826  0.74910586  0.90956891     0.02340
C2908       C  0.65001958  0.75158665  0.93503211     0.00020
C2909       C  0.68033186  0.75309424  0.93263943    -0.11710
C2910       C  0.69383574  0.75021015  0.90548820     0.02220
H2911       H  0.63312349  0.74385684  0.86299544     0.15200
H2912       H  0.69351834  0.75498983  0.95218474     0.15200
C2913       C  0.72516159  0.75190241  0.90420339     0.36860
C2914       C  0.60158150  0.74808049  0.91097461     0.36760
N2915       N  0.75025488  0.75337320  0.90319346    -0.43490
N2916       N  0.57646990  0.74718269  0.91212768    -0.43480
C2917       C  0.88107510  0.68050917  0.74369679     0.00100
C2918       C  0.88540123  0.65707136  0.76311527    -0.11770
C2919       C  0.91304326  0.64464116  0.76704727     0.02340
C2920       C  0.93696223  0.65588325  0.75170745     0.00020
C2921       C  0.93313694  0.68026344  0.73385294    -0.11710
C2922       C  0.90573888  0.69250340  0.72947771     0.02220
H2923       H  0.86706458  0.64779696  0.77463103     0.15200
H2924       H  0.95159586  0.68876342  0.72186012     0.15200
C2925       C  0.90402077  0.71662524  0.70932414     0.36860
C2926       C  0.91611943  0.61949795  0.78563411     0.36760
N2927       N  0.90282613  0.73582785  0.69304250    -0.43490
N2928       N  0.91867868  0.59937346  0.80057838    -0.43480
C2929       C  0.75075835  0.06271118  0.85044684     0.00100
C2930       C  0.75078171  0.08775612  0.86797257    -0.11770
C2931       C  0.74853865  0.11550429  0.85565322     0.02340
C2932       C  0.74630602  0.11850972  0.82510902     0.00020
C2933       C  0.74752968  0.09344421  0.80751369    -0.11710
C2934       C  0.74978390  0.06566400  0.81992337     0.02220
H2935       H  0.75096352  0.08547285  0.89151003     0.15200
H2936       H  0.74606169  0.09552792  0.78401048     0.15200
C2937       C  0.74922536  0.04049682  0.80107053     0.36860
C2938       C  0.74595953  0.14017261  0.87499953     0.36760
N2939       N  0.74877495  0.02031548  0.78596957    -0.43490
N2940       N  0.74369660  0.15987987  0.89055565    -0.43480
C2941       C  0.56529524  0.14761334  0.75642291     0.00100
C2942       C  0.56689741  0.17805081  0.75675744    -0.11770
C2943       C  0.59368080  0.19216695  0.75394500     0.02340
C2944       C  0.61942005  0.17560228  0.75087559     0.00020
C2945       C  0.61794711  0.14515588  0.75295168    -0.11710
C2946       C  0.59111976  0.13108287  0.75542474     0.02220
H2947       H  0.54703234  0.19078700  0.75745586     0.15200
H2948       H  0.63763693  0.13226275  0.75118976     0.15200
C2949       C  0.59041214  0.09964922  0.75557182     0.36860
C2950       C  0.59410709  0.22360658  0.75418342     0.36760
N2951       N  0.58980215  0.07446451  0.75564332    -0.43490
N2952       N  0.59448307  0.24879560  0.75444219    -0.43480
C2953       C  0.67326334  0.25161813  0.62226604     0.00100
C2954       C  0.69060769  0.24265594  0.59881223    -0.11770
C2955       C  0.67877752  0.23928793  0.57087195     0.02340
C2956       C  0.64910553  0.24553498  0.56599605     0.00020
C2957       C  0.63139737  0.25250398  0.59000566    -0.11710
C2958       C  0.64319842  0.25559077  0.61797756     0.02220
H2959       H  0.71365855  0.23890319  0.60223582     0.15200
H2960       H  0.60854999  0.25729795  0.58652914     0.15200
C2961       C  0.62452727  0.26523555  0.64133800     0.36860
C2962       C  0.69800000  0.23107765  0.54747434     0.36760
N2963       N  0.60962288  0.27311907  0.66003571    -0.43490
N2964       N  0.71361891  0.22418739  0.52898839    -0.43480
C2965       C  0.75297364  0.37962320  0.67583330     0.00100
C2966       C  0.73998305  0.40252395  0.69137864    -0.11770
C2967       C  0.73777391  0.43052144  0.67924896     0.02340
C2968       C  0.74890632  0.43585096  0.65106217     0.00020
C2969       C  0.76020217  0.41220382  0.63503098    -0.11710
C2970       C  0.76280276  0.38450982  0.64730571     0.02220
H2971       H  0.73219855  0.39866294  0.71333445     0.15200
H2972       H  0.76847156  0.41571559  0.61320561     0.15200
C2973       C  0.77792506  0.36214161  0.63118117     0.36860
C2974       C  0.72533524  0.45344118  0.69675850     0.36760
N2975       N  0.79040856  0.34434910  0.61845043    -0.43490
N2976       N  0.71508612  0.47169229  0.71078106    -0.43480
C2977       C  0.82393451  0.24329350  0.88134787     0.00100
C2978       C  0.83488548  0.27051123  0.89015683    -0.11770
C2979       C  0.84804153  0.27415817  0.91762415     0.02340
C2980       C  0.85025690  0.25021729  0.93683472     0.00020
C2981       C  0.83766200  0.22356921  0.92840453    -0.11710
C2982       C  0.82562263  0.21963936  0.90084495     0.02220
H2983       H  0.83328947  0.28895441  0.87549181     0.15200
H2984       H  0.83853124  0.20503182  0.94302758     0.15200
C2985       C  0.81757964  0.19040191  0.89242506     0.36860
C2986       C  0.85948957  0.30242301  0.92493137     0.36760
N2987       N  0.81171535  0.16686533  0.88561674    -0.43490
N2988       N  0.86816715  0.32544347  0.93028897    -0.43480
C2989       C  0.93641172  0.34779239  0.75149309     0.00100
C2990       C  0.92937814  0.33077935  0.77585227    -0.11770
C2991       C  0.90169225  0.31914458  0.77949698     0.02340
C2992       C  0.88025697  0.32316194  0.75763484     0.00020
C2993       C  0.88767682  0.33908217  0.73245963    -0.11710
C2994       C  0.91548030  0.35147354  0.72930143     0.02220
H2995       H  0.94535689  0.32784403  0.79306040     0.15200
H2996       H  0.87168538  0.34209203  0.71532391     0.15200
C2997       C  0.92159452  0.36874960  0.70380127     0.36860
C2998       C  0.89572081  0.30485777  0.80691680     0.36760
N2999       N  0.92655838  0.38252261  0.68330339    -0.43490
N3000       N  0.89100617  0.29360768  0.82896755    -0.43480
C3001       C  0.74590020  0.61900703  0.17766463     0.00100
C3002       C  0.75426015  0.59496617  0.19465876    -0.11770
C3003       C  0.75722802  0.56726449  0.18213339     0.02340
C3004       C  0.75176566  0.56348818  0.15211318     0.00020
C3005       C  0.74472165  0.58788701  0.13501374    -0.11710
C3006       C  0.74133345  0.61536294  0.14754427     0.02220
H3007       H  0.75785156  0.59774247  0.21786793     0.15200
H3008       H  0.74010700  0.58507533  0.11198852     0.15200
C3009       C  0.73022241  0.63871891  0.12963505     0.36860
C3010       C  0.76407010  0.54289124  0.20077478     0.36760
N3011       N  0.72087937  0.65730169  0.11539502    -0.43490
N3012       N  0.76959940  0.52334346  0.21569292    -0.43480
C3013       C  0.82038223  0.74270815  0.11719452     0.00100
C3014       C  0.83897068  0.76627364  0.11090811    -0.11770
C3015       C  0.85175495  0.76933658  0.08328291     0.02340
C3016       C  0.84565573  0.74883651  0.06123728     0.00020
C3017       C  0.82625607  0.72612497  0.06708139    -0.11710
C3018       C  0.81410788  0.72250755  0.09463089     0.02220
H3019       H  0.84399915  0.78209002  0.12772956     0.15200
H3020       H  0.82175787  0.71010001  0.05025663     0.15200
C3021       C  0.79701115  0.69656709  0.09915619     0.36860
C3022       C  0.87223233  0.79264458  0.07859520     0.36760
N3023       N  0.78367374  0.67550395  0.10250844    -0.43490
N3024       N  0.88868588  0.81130127  0.07480784    -0.43480
C3025       C  0.62030850  0.67535828  0.25511967     0.00100
C3026       C  0.59648876  0.69325709  0.24818083    -0.11770
C3027       C  0.56856891  0.68154205  0.24475895     0.02340
C3028       C  0.56416252  0.65146874  0.24880913     0.00020
C3029       C  0.58827017  0.63342468  0.25433593    -0.11710
C3030       C  0.61619461  0.64506319  0.25743763     0.02220
H3031       H  0.59965147  0.71654405  0.24588547     0.15200
H3032       H  0.58497460  0.61028024  0.25768863     0.15200
C3033       C  0.63977621  0.62578381  0.26522884     0.36860
C3034       C  0.54466306  0.70098929  0.23868708     0.36760
N3035       N  0.65864836  0.61036368  0.27161052    -0.43490
N3036       N  0.52558196  0.71663652  0.23365187    -0.43480
C3037       C  0.67831677  0.75360321  0.38158249     0.00100
C3038       C  0.69406685  0.76330056  0.40608243    -0.11770
C3039       C  0.68287148  0.76048241  0.43419788     0.02340
C3040       C  0.65536095  0.74785441  0.43834527     0.00020
C3041       C  0.64023170  0.73655031  0.41437920    -0.11710
C3042       C  0.65150293  0.73901689  0.38612356     0.02220
H3043       H  0.71502819  0.77371794  0.40333588     0.15200
H3044       H  0.61885348  0.72714095  0.41760935     0.15200
C3045       C  0.63429882  0.72752646  0.36240268     0.36860
C3046       C  0.69940133  0.77185744  0.45845709     0.36760
N3047       N  0.62045554  0.71816236  0.34350817    -0.43490
N3048       N  0.71265188  0.78087249  0.47793071    -0.43480
C3049       C  0.87986838  0.82403069  0.24428001     0.00100
C3050       C  0.90360458  0.81184373  0.22930338    -0.11770
C3051       C  0.93132313  0.82391440  0.23134234     0.02340
C3052       C  0.93600107  0.84890281  0.24853940     0.00020
C3053       C  0.91302019  0.86034681  0.26488462    -0.11710
C3054       C  0.88508679  0.84809027  0.26310734     0.02220
H3055       H  0.90057282  0.79299320  0.21538834     0.15200
H3056       H  0.91664554  0.87958581  0.27812445     0.15200
C3057       C  0.86243119  0.86115130  0.28048486     0.36860
C3058       C  0.95461642  0.81073208  0.21483518     0.36760
N3059       N  0.84444008  0.87166655  0.29460394    -0.43490
N3060       N  0.97328769  0.80027719  0.20159001    -0.43480
C3061       C  0.75357642  0.88261057  0.32130451     0.00100
C3062       C  0.73888233  0.88502546  0.34811925    -0.11770
C3063       C  0.73593195  0.91199684  0.36213015     0.02340
C3064       C  0.74764933  0.93717165  0.34928766     0.00020
C3065       C  0.76096933  0.93523298  0.32200003    -0.11710
C3066       C  0.76385990  0.90845702  0.30780411     0.02220
H3067       H  0.73045578  0.86571249  0.35870766     0.15200
H3068       H  0.77004787  0.95469409  0.31219530     0.15200
C3069       C  0.77767204  0.90856421  0.27955405     0.36860
C3070       C  0.72203714  0.91319547  0.39027901     0.36760
N3071       N  0.78875125  0.90882147  0.25693520    -0.43490
N3072       N  0.71088287  0.91423567  0.41283166    -0.43480
loop_ 
_geom_bond_atom_site_label_1 
_geom_bond_atom_site_label_2 
_geom_bond_distance 
_geom_bond_site_symmetry_2 
_ccdc_geom_bond_type 
O1           Mg3   2.116       .  S
O1           Mg9   2.149       .  S
O1           C36   1.238       .  S
C2           O15   1.238       .  S
C2           O39   1.271       .  A
C2           H41   1.082       .  S
Mg3          O32   2.141       .  S
Mg3          O47   2.298       .  S
Mg3          O43   2.234       .  S
Mg3          O14   2.295       .  S
O4          Mg46   2.139       .  S
O4          Mg29   2.128       .  S
O4           C25   1.238       .  S
O5           C36   1.270       .  A
O5          Mg29   2.289       .  S
C6            O8   1.274       .  A
C6           O20   1.274       .  A
C6         C3049   1.493       .  S
O7           C35   1.271       .  A
O7           Mg9   2.294       .  S
O8          Mg40   2.254       .  S
Mg9          O15   2.118       .  S
Mg9          O23   2.253       .  S
Mg9          O11   2.304       .  S
C10          O48   1.270       .  A
C10          O16   1.277       .  A
C10        C3061   1.492       .  S
O11          C18   1.275       .  A
H12          C25   1.082       .  S
C13          O27   1.238       .  S
C13          O28   1.272       .  A
C13          H38   1.082       .  S
O14          C37   1.270       .  A
O15         Mg29   2.144       .  S
O16         Mg46   2.321       .  S
C17          O30   1.274       .  A
C17          O22   1.275       .  A
C17        C3037   1.490       .  S
C18          O45   1.272       .  A
C18        C3025   1.475       .  S
Mg19         O26   2.128       .  S
Mg19         O27   2.135       .  S
Mg19         O20   2.308       .  S
Mg19         O21   2.299       .  S
Mg19         O48   2.244       .  S
O21          C25   1.271       .  A
O22         Mg29   2.303       .  S
O23          C42   1.271       .  A
O24          C44   1.279       .  A
O24         Mg40   2.333       .  S
O26         Mg40   2.138       .  S
O26          C37   1.237       .  S
O27         Mg46   2.132       .  S
O28         Mg40   2.303       .  S
Mg29         O45   2.254       .  S
O30         Mg46   2.257       .  S
H31          C36   1.082       .  S
O32         Mg40   2.129       .  S
O32          C35   1.238       .  S
H33          C35   1.082       .  S
H34          C37   1.082       .  S
O39         Mg46   2.295       .  S
C42          O47   1.274       .  A
C42        C3001   1.472       .  S
O43          C44   1.270       .  A
C44        C3013   1.492       .  S
O49         Mg51   2.123       .  S
O49         Mg57   2.149       .  S
O49          C84   1.238       .  S
C50          O63   1.237       .  S
C50          O87   1.271       .  A
C50          H89   1.082       .  S
Mg51         O80   2.146       .  S
Mg51         O95   2.292       .  S
Mg51         O91   2.254       .  S
Mg51         O62   2.293       .  S
O52         Mg94   2.148       .  S
O52         Mg77   2.130       .  S
O52          C73   1.238       .  S
O53          C84   1.270       .  A
O53         Mg77   2.291       .  S
C54          O56   1.270       .  A
C54          O68   1.276       .  A
C54        C2977   1.481       .  S
O55          C83   1.270       .  A
O55         Mg57   2.288       .  S
O56         Mg88   2.232       .  S
Mg57         O63   2.132       .  S
Mg57         O71   2.257       .  S
Mg57         O59   2.298       .  S
C58          O96   1.269       .  A
C58          O64   1.279       .  A
C58        C2992   1.489       .  S
O59          C66   1.274       .  A
H60          C73   1.082       .  S
C61          O75   1.238       .  S
C61          O76   1.272       .  A
C61          H86   1.082       .  S
O62          C85   1.270       .  A
O63         Mg77   2.149       .  S
O64         Mg94   2.338       .  S
C65          O78   1.273       .  A
C65          O70   1.277       .  A
C65        C2965   1.473       .  S
C66          O93   1.274       .  A
C66        C2953   1.474       .  S
Mg67         O74   2.124       .  S
Mg67         O75   2.136       .  S
Mg67         O68   2.321       .  S
Mg67         O69   2.297       .  S
Mg67         O96   2.225       .  S
O69          C73   1.271       .  A
O70         Mg77   2.316       .  S
O71          C90   1.273       .  A
O72          C92   1.275       .  A
O72         Mg88   2.305       .  S
O74         Mg88   2.136       .  S
O74          C85   1.237       .  S
O75         Mg94   2.136       .  S
O76         Mg88   2.301       .  S
Mg77         O93   2.263       .  S
O78         Mg94   2.258       .  S
H79          C84   1.082       .  S
O80         Mg88   2.111       .  S
O80          C83   1.238       .  S
H81          C83   1.082       .  S
H82          C85   1.082       .  S
O87         Mg94   2.296       .  S
C90          O95   1.274       .  A
C90        C2944   1.477       .  S
O91          C92   1.272       .  A
C92        C2932   1.480       .  S
O97         Mg99   2.122       .  S
O97        Mg105   2.134       .  S
O97         C132   1.238       .  S
C98         O111   1.238       .  S
C98         O135   1.271       .  A
C98         H137   1.082       .  S
Mg99        O128   2.132       .  S
Mg99        O143   2.313       .  S
Mg99        O139   2.234       .  S
Mg99        O110   2.298       .  S
O100       Mg142   2.144       .  S
O100       Mg125   2.115       .  S
O100        C121   1.238       .  S
O101        C132   1.271       .  A
O101       Mg125   2.298       .  S
C102        O104   1.273       .  A
C102        O116   1.275       .  A
C102       C2869   1.479       .  S
O103        C131   1.272       .  A
O103       Mg105   2.303       .  S
O104       Mg136   2.257       .  S
Mg105       O111   2.122       .  S
Mg105       O119   2.246       .  S
Mg105       O107   2.315       .  S
C106        O144   1.273       .  A
C106        O112   1.274       .  A
C106       C2905   1.476       .  S
O107        C114   1.276       .  A
H108        C121   1.082       .  S
C109        O123   1.238       .  S
C109        O124   1.271       .  A
C109        H134   1.082       .  S
O110        C133   1.271       .  A
O111       Mg125   2.139       .  S
O112       Mg142   2.297       .  S
C113        O126   1.271       .  A
C113        O118   1.275       .  A
C113       C2881   1.479       .  S
C114        O141   1.271       .  A
C114       C2893   1.488       .  S
Mg115       O122   2.124       .  S
Mg115       O123   2.145       .  S
Mg115       O116   2.300       .  S
Mg115       O117   2.290       .  S
Mg115       O144   2.256       .  S
O117        C121   1.270       .  A
O118       Mg125   2.302       .  S
O119        C138   1.272       .  A
O120        C140   1.278       .  A
O120       Mg136   2.327       .  S
O122       Mg136   2.141       .  S
O122        C133   1.238       .  S
O123       Mg142   2.122       .  S
O124       Mg136   2.295       .  S
Mg125       O141   2.237       .  S
O126       Mg142   2.251       .  S
H127        C132   1.081       .  S
O128       Mg136   2.133       .  S
O128        C131   1.238       .  S
H129        C131   1.082       .  S
H130        C133   1.082       .  S
O135       Mg142   2.293       .  S
C138        O143   1.275       .  A
C138       C2857   1.491       .  S
O139        C140   1.269       .  A
C140       C2917   1.493       .  S
C145       C2824   1.473       .  S
C145        C146   1.401       .  A
C145        C150   1.394       .  A
C146        H151   1.084       .  S
C146        C147   1.408       .  A
C147       C2845   1.481       .  S
C147        C148   1.409       .  A
C148        H152   1.084       .  S
C148        C149   1.406       .  A
C149       C2833   1.486       .  S
C149        C150   1.398       .  A
C150        H153   1.085       .  S
C154       C2785   1.472       .  S
C154        C155   1.400       .  A
C154        C159   1.391       .  A
C155        H160   1.083       .  S
C155        C156   1.413       .  A
C156       C2809   1.498       .  S
C156        C157   1.415       .  A
C157        H161   1.083       .  S
C157        C158   1.406       .  A
C158       C2797   1.484       .  S
C158        C159   1.394       .  A
C159        H162   1.085       .  S
C163       C2812   1.483       .  S
C163        C164   1.404       .  A
C163        C168   1.404       .  A
C164        H169   1.084       .  S
C164        C165   1.402       .  A
C165       C2848   1.478       .  S
C165        C166   1.402       .  A
C166        H170   1.084       .  S
C166        C167   1.406       .  A
C167       C2773   1.489       .  S
C167        C168   1.406       .  A
C168        H171   1.084       .  S
C172       C2749   1.475       .  S
C172        C173   1.403       .  A
C172        C177   1.395       .  A
C173        H178   1.084       .  S
C173        C174   1.408       .  A
C174       C2776   1.480       .  S
C174        C175   1.408       .  A
C175        H179   1.084       .  S
C175        C176   1.403       .  A
C176       C2764   1.477       .  S
C176        C177   1.395       .  A
C177        H180   1.085       .  S
O181       Mg183   2.120       .  S
O181       Mg189   2.134       .  S
O181        C216   1.237       .  S
C182        O195   1.238       .  S
C182        O219   1.271       .  A
C182        H221   1.082       .  S
Mg183       O212   2.135       .  S
Mg183       O227   2.316       .  S
Mg183       O223   2.237       .  S
Mg183       O194   2.298   1_655  S
O184       Mg226   2.144       .  S
O184       Mg209   2.114   1_455  S
O184        C205   1.236       .  S
O185        C216   1.271       .  A
O185       Mg209   2.295       .  S
C186        O188   1.271       .  A
C186        O200   1.274       .  A
C186       C2692   1.471       .  S
O187        C215   1.272       .  A
O187       Mg189   2.301       .  S
O188       Mg220   2.253       .  S
Mg189       O195   2.127       .  S
Mg189       O203   2.247       .  S
Mg189       O191   2.322       .  S
C190        O228   1.271       .  A
C190        O196   1.278       .  A
C190       C2752   1.494       .  S
O191        C198   1.277       .  A
H192        C205   1.082       .  S
C193        O207   1.238       .  S
C193        O208   1.271       .  A
C193        H218   1.082       .  S
O194        C217   1.271       .  A
O195       Mg209   2.138       .  S
O196       Mg226   2.323       .  S
C197        O210   1.273       .  A
C197        O202   1.273   1_455  A
C197       C2725   1.470       .  S
C198        O225   1.268       .  A
C198       C2740   1.492       .  S
Mg199       O206   2.124       .  S
Mg199       O207   2.143       .  S
Mg199       O200   2.297       .  S
Mg199       O201   2.289       .  S
Mg199       O228   2.245       .  S
O201        C205   1.269       .  A
O202       Mg209   2.290       .  S
O203        C222   1.273       .  A
O204        C224   1.275   1_455  A
O204       Mg220   2.317       .  S
O206       Mg220   2.146       .  S
O206        C217   1.238       .  S
O207       Mg226   2.128       .  S
O208       Mg220   2.295       .  S
Mg209       O225   2.230       .  S
O210       Mg226   2.260       .  S
H211        C216   1.082       .  S
O212       Mg220   2.129   1_655  S
O212        C215   1.238       .  S
H213        C215   1.082       .  S
H214        C217   1.082       .  S
O219       Mg226   2.295   1_655  S
C222        O227   1.275       .  A
C222       C2713   1.493       .  S
O223        C224   1.272       .  A
C224       C2701   1.490       .  S
O229       Mg231   2.123       .  S
O229       Mg237   2.140       .  S
O229        C264   1.238       .  S
C230        O243   1.238       .  S
C230        O267   1.272       .  A
C230        H269   1.082       .  S
Mg231       O260   2.141       .  S
Mg231       O275   2.305       .  S
Mg231       O271   2.242       .  S
Mg231       O242   2.294   1_565  S
O232       Mg274   2.138       .  S
O232       Mg257   2.121   1_545  S
O232        C253   1.238       .  S
O233        C264   1.272   1_545  A
O233       Mg257   2.301   1_545  S
C234        O236   1.274       .  A
C234        O248   1.275       .  A
C234       C2641   1.474       .  S
O235        C263   1.272       .  A
O235       Mg237   2.302       .  S
O236       Mg268   2.263       .  S
Mg237       O243   2.126       .  S
Mg237       O251   2.263       .  S
Mg237       O239   2.336       .  S
C238        O276   1.272       .  A
C238        O244   1.274       .  A
C238       C2800   1.470       .  S
O239        C246   1.279       .  A
H240        C253   1.082       .  S
C241        O255   1.238       .  S
C241        O256   1.270       .  A
C241        H266   1.081       .  S
O242        C265   1.270       .  A
O243       Mg257   2.132       .  S
O244       Mg274   2.301       .  S
C245        O258   1.271       .  A
C245        O250   1.276   1_545  A
C245       C2677   1.487       .  S
C246        O273   1.272       .  A
C246       C2653   1.495       .  S
Mg247       O254   2.118       .  S
Mg247       O255   2.148       .  S
Mg247       O248   2.302       .  S
Mg247       O249   2.290       .  S
Mg247       O276   2.250       .  S
O249        C253   1.270       .  A
O250       Mg257   2.315       .  S
O251        C270   1.273       .  A
O252        C272   1.276   1_545  A
O252       Mg268   2.315       .  S
O254       Mg268   2.144       .  S
O254        C265   1.237       .  S
O255       Mg274   2.114       .  S
O256       Mg268   2.288       .  S
Mg257       O273   2.242       .  S
O258       Mg274   2.239       .  S
H259        C264   1.081       .  S
O260       Mg268   2.136   1_565  S
O260        C263   1.239       .  S
H261        C263   1.081       .  S
H262        C265   1.082       .  S
O267       Mg274   2.299   1_565  S
C270        O275   1.275       .  A
C270       C2668   1.476       .  S
O271        C272   1.272       .  A
C272       C2632   1.491       .  S
C277       C2608   1.486       .  S
C277        C278   1.404       .  A
C277        C282   1.407       .  A
C278        H283   1.084       .  S
C278        C279   1.404       .  A
C279       C2617   1.480       .  S
C279        C280   1.403       .  A
C280        H284   1.084       .  S
C280        C281   1.404       .  A
C281       C2593   1.485       .  S
C281        C282   1.406       .  A
C282        H285   1.084       .  S
C286       C2581   1.482       .  S
C286        C287   1.406       .  A
C286        C291   1.397       .  A
C287        H292   1.084       .  S
C287        C288   1.410       .  A
C288       C2620   1.485       .  S
C288        C289   1.409       .  A
C289        H293   1.084       .  S
C289        C290   1.401       .  A
C290       C2572   1.473       .  S
C290        C291   1.394       .  A
C291        H294   1.085       .  S
C295       C3040   1.472       .  S
C295        C296   1.400       .  A
C295        C300   1.391       .  A
C296        H301   1.084       .  S
C296        C297   1.412       .  A
C297       C2605   1.498       .  S
C297        C298   1.417       .  A
C298        H302   1.083       .  S
C298        C299   1.409       .  A
C299       C2665   1.486       .  S
C299        C300   1.396       .  A
C300        H303   1.085       .  S
C304       C2716   1.480       .  S
C304        C305   1.393       .  A
C304        C309   1.401       .  A
C305        H310   1.085       .  S
C305        C306   1.398       .  A
C306       C2968   1.494       .  S
C306        C307   1.410       .  A
C307        H311   1.082       .  S
C307        C308   1.416       .  A
C308       C2596   1.496       .  S
C308        C309   1.413       .  A
C309        H312   1.083       .  S
O313       Mg315   2.128       .  S
O313       Mg321   2.142       .  S
O313        C348   1.238       .  S
C314        O327   1.238   1_554  S
C314        O351   1.272       .  A
C314        H353   1.082   1_554  S
Mg315       O344   2.142   1_556  S
Mg315       O359   2.294       .  S
Mg315       O355   2.264       .  S
Mg315       O326   2.294       .  S
O316       Mg358   2.139   1_556  S
O316       Mg341   2.128       .  S
O316        C337   1.238       .  S
O317        C348   1.271       .  A
O317       Mg341   2.299       .  S
C318        O320   1.272       .  A
C318        O332   1.276       .  A
C318       C2836   1.493       .  S
O319        C347   1.272   1_556  A
O319       Mg321   2.300       .  S
O320       Mg352   2.266       .  S
Mg321       O327   2.130       .  S
Mg321       O335   2.269       .  S
Mg321       O323   2.302       .  S
C322        O360   1.270       .  A
C322        O328   1.275       .  A
C322       C2533   1.492       .  S
O323        C330   1.277       .  A
H324        C337   1.082       .  S
C325        O339   1.238       .  S
C325        O340   1.271       .  A
C325        H350   1.082       .  S
O326        C349   1.270       .  A
O327       Mg341   2.144       .  S
O328       Mg358   2.295       .  S
C329        O342   1.270       .  A
C329        O334   1.276   1_554  A
C329       C2521   1.468       .  S
C330        O357   1.272       .  A
C330       C2584   1.492       .  S
Mg331       O338   2.118       .  S
Mg331       O339   2.144       .  S
Mg331       O332   2.296       .  S
Mg331       O333   2.299       .  S
Mg331       O360   2.260       .  S
O333        C337   1.272   1_554  A
O334       Mg341   2.315       .  S
O335        C354   1.273       .  A
O336        C356   1.276   1_554  A
O336       Mg352   2.302       .  S
O338       Mg352   2.143       .  S
O338        C349   1.238   1_554  S
O339       Mg358   2.123       .  S
O340       Mg352   2.297       .  S
Mg341       O357   2.265       .  S
O342       Mg358   2.254       .  S
H343        C348   1.082       .  S
O344       Mg352   2.125       .  S
O344        C347   1.238       .  S
H345        C347   1.081       .  S
H346        C349   1.082   1_554  S
O351       Mg358   2.301       .  S
C354        O359   1.275       .  A
C354       C2557   1.481       .  S
O355        C356   1.272       .  A
C356       C2548   1.491       .  S
O361       Mg363   2.131       .  S
O361       Mg369   2.141       .  S
O361        C396   1.237       .  S
C362        O375   1.238       .  S
C362        O399   1.271       .  A
C362        H401   1.081       .  S
Mg363       O392   2.146       .  S
Mg363       O407   2.297       .  S
Mg363       O403   2.267       .  S
Mg363       O374   2.295       .  S
O364       Mg406   2.146       .  S
O364       Mg389   2.127       .  S
O364        C385   1.238       .  S
O365        C396   1.271       .  A
O365       Mg389   2.300       .  S
C366        O368   1.273       .  A
C366        O380   1.274       .  A
C366       C2512   1.494       .  S
O367        C395   1.272       .  A
O367       Mg369   2.300       .  S
O368       Mg400   2.273       .  S
Mg369       O375   2.134       .  S
Mg369       O383   2.272       .  S
Mg369       O371   2.314       .  S
C370        O408   1.270       .  A
C370        O376   1.273       .  A
C370       C2461   1.466       .  S
O371        C378   1.276       .  A
H372        C385   1.082       .  S
C373        O387   1.237       .  S
C373        O388   1.270       .  A
C373        H398   1.082       .  S
O374        C397   1.271       .  A
O375       Mg389   2.145       .  S
O376       Mg406   2.300       .  S
C377        O390   1.269       .  A
C377        O382   1.275       .  A
C377       C2485   1.467       .  S
C378        O405   1.271       .  A
C378       C2452   1.468       .  S
Mg379       O386   2.118       .  S
Mg379       O387   2.142       .  S
Mg379       O380   2.290       .  S
Mg379       O381   2.297       .  S
Mg379       O408   2.255       .  S
O381        C385   1.271       .  A
O382       Mg389   2.309       .  S
O383        C402   1.274       .  A
O384        C404   1.274       .  A
O384       Mg400   2.289       .  S
O386       Mg400   2.149       .  S
O386        C397   1.238       .  S
O387       Mg406   2.122       .  S
O388       Mg400   2.295       .  S
Mg389       O405   2.256       .  S
O390       Mg406   2.246       .  S
H391        C396   1.082       .  S
O392       Mg400   2.126       .  S
O392        C395   1.238       .  S
H393        C395   1.082       .  S
H394        C397   1.081       .  S
O399       Mg406   2.297       .  S
C402        O407   1.275       .  A
C402       C2497   1.485       .  S
O403        C404   1.273       .  A
C404       C2473   1.490       .  S
O409       Mg411   2.133       .  S
O409       Mg417   2.145   1_455  S
O409        C444   1.239       .  S
C410        O423   1.238       .  S
C410        O447   1.272   1_546  A
C410        H449   1.082       .  S
Mg411       O440   2.146   1_545  S
Mg411       O455   2.314       .  S
Mg411       O451   2.281       .  S
Mg411       O422   2.298       .  S
O412       Mg454   2.143   1_545  S
O412       Mg437   2.121       .  S
O412        C433   1.237   1_655  S
O413        C444   1.272   1_654  A
O413       Mg437   2.300       .  S
C414        O416   1.270       .  A
C414        O428   1.273   1_556  A
C414       C2437   1.466       .  S
O415        C443   1.270   1_545  A
O415       Mg417   2.295       .  S
O416       Mg448   2.257       .  S
Mg417       O423   2.127       .  S
Mg417       O431   2.254       .  S
Mg417       O419   2.305       .  S
C418        O456   1.271       .  A
C418        O424   1.277   1_455  A
C418       C2389   1.482       .  S
O419        C426   1.274   1_556  A
H420        C433   1.082   1_655  S
C421        O435   1.238   1_556  S
C421        O436   1.271   1_655  A
C421        H446   1.081       .  S
O422        C445   1.271   1_546  A
O423       Mg437   2.143   1_556  S
O424       Mg454   2.310       .  S
C425        O438   1.273   1_545  A
C425        O430   1.275       .  A
C425       C2416   1.493   1_545  S
C426        O453   1.271       .  A
C426       C2404   1.468       .  S
Mg427       O434   2.125       .  S
Mg427       O435   2.146   1_455  S
Mg427       O428   2.293       .  S
Mg427       O429   2.295       .  S
Mg427       O456   2.253       .  S
O429        C433   1.270   1_565  A
O430       Mg437   2.302       .  S
O431        C450   1.271       .  A
O432        C452   1.273   1_565  A
O432       Mg448   2.290       .  S
O434       Mg448   2.149   1_554  S
O434        C445   1.238       .  S
O435       Mg454   2.126       .  S
O436       Mg448   2.294       .  S
Mg437       O453   2.259       .  S
O438       Mg454   2.268       .  S
H439        C444   1.081       .  S
O440       Mg448   2.121       .  S
O440        C443   1.237   1_455  S
H441        C443   1.082       .  S
H442        C445   1.082       .  S
O447       Mg454   2.299       .  S
C450        O455   1.276   1_655  A
C450       C2428   1.468       .  S
O451        C452   1.275       .  A
C452       C2380   1.495   1_545  S
C457       C2356   1.474   1_565  S
C457        C458   1.395       .  A
C457        C462   1.403   1_565  A
C458        H463   1.085       .  S
C458        C459   1.396       .  A
C459       C3064   1.474       .  S
C459        C460   1.402       .  A
C460        H464   1.084       .  S
C460        C461   1.408   1_565  A
C461       C2365   1.480       .  S
C461        C462   1.408       .  A
C462        H465   1.084       .  S
C466       C2341   1.526       .  S
C466        C467   1.415       .  A
C466        C471   1.418       .  A
C467        H472   1.076       .  S
C467        C468   1.405       .  A
C468       C2368   1.488       .  S
C468        C469   1.398       .  A
C469        H473   1.083       .  S
C469        C470   1.402       .  A
C470       C2332   1.494       .  S
C470        C471   1.408       .  A
C471        H474   1.080       .  S
C475       C2305   1.489       .  S
C475        C476   1.410       .  A
C475        C480   1.396       .  A
C476        H481   1.078       .  S
C476        C477   1.422       .  A
C477       C2344   1.513       .  S
C477        C478   1.418       .  A
C478        H482   1.082       .  S
C478        C479   1.396       .  A
C479       C2317   1.471       .  S
C479        C480   1.385       .  A
C480        H483   1.086       .  S
C484       C2956   1.486       .  S
C484        C485   1.398       .  A
C484        C489   1.406       .  A
C485        H490   1.084       .  S
C485        C486   1.399       .  A
C486       C2488   1.489       .  S
C486        C487   1.406       .  A
C487        H491   1.083       .  S
C487        C488   1.407       .  A
C488       C2329   1.482       .  S
C488        C489   1.409       .  A
C489        H492   1.083       .  S
C493       C2272   1.482       .  S
C493        C494   1.405       .  A
C493        C498   1.398       .  A
C494        H499   1.084       .  S
C494        C495   1.407   1_545  A
C495       C2293   1.478       .  S
C495        C496   1.406       .  A
C496        H500   1.084       .  S
C496        C497   1.401   1_565  A
C497       C2284   1.473   1_545  S
C497        C498   1.394       .  A
C498        H501   1.085       .  S
C502       C2296   1.486       .  S
C502        C503   1.404       .  A
C502        C507   1.405       .  A
C503        H508   1.083       .  S
C503        C504   1.408       .  A
C504       C2257   1.498       .  S
C504        C505   1.409       .  A
C505        H509   1.084       .  S
C505        C506   1.404       .  A
C506       C2248   1.485       .  S
C506        C507   1.404       .  A
C507        H510   1.084       .  S
C511       C2233   1.474       .  S
C511        C512   1.393       .  A
C511        C516   1.402       .  A
C512        H517   1.085       .  S
C512        C513   1.395       .  A
C513       C2884   1.475       .  S
C513        C514   1.403       .  A
C514        H518   1.082       .  S
C514        C515   1.413       .  A
C515       C2245   1.498       .  S
C515        C516   1.413       .  A
C516        H519   1.083       .  S
C520       C2476   1.479       .  S
C520        C521   1.405       .  A
C520        C525   1.397       .  A
C521        H526   1.084       .  S
C521        C522   1.409       .  A
C522       C2260   1.485       .  S
C522        C523   1.409       .  A
C523        H527   1.084       .  S
C523        C524   1.402       .  A
C524       C2224   1.473       .  S
C524        C525   1.393       .  A
C525        H528   1.085       .  S
O529       Mg531   2.126       .  S
O529       Mg537   2.135   1_545  S
O529        C564   1.238       .  S
C530        O543   1.238       .  S
C530        O567   1.271   1_556  A
C530        H569   1.082       .  S
Mg531       O560   2.141   1_556  S
Mg531       O575   2.302       .  S
Mg531       O571   2.260       .  S
Mg531       O542   2.298       .  S
O532       Mg574   2.144   1_556  S
O532       Mg557   2.130       .  S
O532        C553   1.238       .  S
O533        C564   1.272   1_565  A
O533       Mg557   2.303       .  S
C534        O536   1.270       .  A
C534        O548   1.275       .  A
C534       C2320   1.472       .  S
O535        C563   1.271   1_566  A
O535       Mg537   2.299       .  S
O536       Mg568   2.253       .  S
Mg537       O543   2.128       .  S
Mg537       O551   2.259       .  S
Mg537       O539   2.303       .  S
C538        O576   1.270   1_565  A
C538        O544   1.276       .  A
C538       C2185   1.487   1_565  S
O539        C546   1.275       .  A
H540        C553   1.082       .  S
C541        O555   1.238       .  S
C541        O556   1.271   1_565  A
C541        H566   1.081       .  S
O542        C565   1.271       .  A
O543       Mg557   2.136       .  S
O544       Mg574   2.308       .  S
C545        O558   1.271       .  A
C545        O550   1.276   1_554  A
C545       C2212   1.486       .  S
C546        O573   1.272       .  A
C546       C2236   1.474       .  S
Mg547       O554   2.123       .  S
Mg547       O555   2.136   1_545  S
Mg547       O548   2.303       .  S
Mg547       O549   2.301       .  S
Mg547       O576   2.251       .  S
O549        C553   1.272   1_544  A
O550       Mg557   2.305       .  S
O551        C570   1.272   1_565  A
O552        C572   1.274   1_554  A
O552       Mg568   2.293       .  S
O554       Mg568   2.137       .  S
O554        C565   1.238   1_554  S
O555       Mg574   2.125       .  S
O556       Mg568   2.302       .  S
Mg557       O573   2.266       .  S
O558       Mg574   2.257       .  S
H559        C564   1.082       .  S
O560       Mg568   2.121       .  S
O560        C563   1.238       .  S
H561        C563   1.082       .  S
H562        C565   1.082   1_554  S
O567       Mg574   2.300       .  S
C570        O575   1.275       .  A
C570       C2173   1.482       .  S
O571        C572   1.271       .  A
C572       C2197   1.487       .  S
C577       C2200   1.476   1_554  S
C577        C578   1.400   1_554  A
C577        C582   1.393       .  A
C578        H583   1.083       .  S
C578        C579   1.412       .  A
C579       C2161   1.497       .  S
C579        C580   1.414   1_556  A
C580        H584   1.083       .  S
C580        C581   1.406       .  A
C581       C2149   1.483       .  S
C581        C582   1.396       .  A
C582        H585   1.085       .  S
C586       C2164   1.487       .  S
C586        C587   1.406       .  A
C586        C591   1.404       .  A
C587        H592   1.084       .  S
C587        C588   1.406       .  A
C588       C2137   1.490       .  S
C588        C589   1.406       .  A
C589        H593   1.084       .  S
C589        C590   1.405       .  A
C590       C2125   1.485       .  S
C590        C591   1.404       .  A
C591        H594   1.084       .  S
C595       C2116   1.475       .  S
C595        C596   1.395       .  A
C595        C600   1.403       .  A
C596        H601   1.085       .  S
C596        C597   1.397       .  A
C597       C2449   1.481       .  S
C597        C598   1.405       .  A
C598        H602   1.084       .  S
C598        C599   1.408       .  A
C599       C2140   1.481       .  S
C599        C600   1.408       .  A
C600        H603   1.084       .  S
C604       C2872   1.475       .  S
C604        C605   1.402       .  A
C604        C609   1.393       .  A
C605        H610   1.084       .  S
C605        C606   1.408       .  A
C606       C2128   1.480       .  S
C606        C607   1.410       .  A
C607        H611   1.083       .  S
C607        C608   1.405       .  A
C608       C2101   1.483       .  S
C608        C609   1.396       .  A
C609        H612   1.085       .  S
C613       C2209   1.476   1_556  S
C613        C614   1.400   1_556  A
C613        C618   1.394       .  A
C614        H619   1.084       .  S
C614        C615   1.406       .  A
C615       C2089   1.478       .  S
C615        C616   1.409   1_554  A
C616        H620   1.083       .  S
C616        C617   1.406       .  A
C617       C2077   1.485       .  S
C617        C618   1.400       .  A
C618        H621   1.085       .  S
C622       C3028   1.481       .  S
C622        C623   1.395       .  A
C622        C627   1.403       .  A
C623        H628   1.085       .  S
C623        C624   1.399       .  A
C624       C2509   1.486       .  S
C624        C625   1.404       .  A
C625        H629   1.083       .  S
C625        C626   1.408       .  A
C626       C2065   1.480       .  S
C626        C627   1.409       .  A
C627        H630   1.084       .  S
C631       C2056   1.476       .  S
C631        C632   1.401       .  A
C631        C636   1.402       .  A
C632        H637   1.084       .  S
C632        C633   1.404       .  A
C633       C2092   1.487       .  S
C633        C634   1.406       .  A
C634        H638   1.084       .  S
C634        C635   1.406       .  A
C635       C2068   1.489       .  S
C635        C636   1.405       .  A
C636        H639   1.084       .  S
C640       C2029   1.474       .  S
C640        C641   1.401       .  A
C640        C645   1.394       .  A
C641        H646   1.084       .  S
C641        C642   1.409       .  A
C642       C2053   1.484       .  S
C642        C643   1.409       .  A
C643        H647   1.084       .  S
C643        C644   1.404       .  A
C644       C2044   1.477       .  S
C644        C645   1.395       .  A
C645        H648   1.085       .  S
O649       Mg651   2.116   1_455  S
O649       Mg657   2.140       .  S
O649        C684   1.238       .  S
C650        O663   1.237       .  S
C650        O687   1.269       .  A
C650        H689   1.082       .  S
Mg651       O680   2.130       .  S
Mg651       O695   2.308       .  S
Mg651       O691   2.235       .  S
Mg651       O662   2.304   1_554  S
O652       Mg694   2.145       .  S
O652       Mg677   2.126   1_556  S
O652        C673   1.238       .  S
O653        C684   1.270       .  A
O653       Mg677   2.289       .  S
C654        O656   1.272       .  A
C654        O668   1.277       .  A
C654       C2104   1.491       .  S
O655        C683   1.271       .  A
O655       Mg657   2.296   1_655  S
O656       Mg688   2.239       .  S
Mg657       O663   2.112       .  S
Mg657       O671   2.235       .  S
Mg657       O659   2.290       .  S
C658        O696   1.272       .  A
C658        O664   1.275   1_655  A
C658       C2008   1.471       .  S
O659        C666   1.273       .  A
H660        C673   1.082       .  S
C661        O675   1.239       .  S
C661        O676   1.273       .  A
C661        H686   1.082       .  S
O662        C685   1.272       .  A
O663       Mg677   2.145       .  S
O664       Mg694   2.302       .  S
C665        O678   1.275       .  A
C665        O670   1.274   1_556  A
C665       C2017   1.488       .  S
C666        O693   1.272       .  A
C666       C2041   1.473       .  S
Mg667       O674   2.130       .  S
Mg667       O675   2.147       .  S
Mg667       O668   2.326       .  S
Mg667       O669   2.294   1_655  S
Mg667       O696   2.257       .  S
O669        C673   1.271       .  A
O670       Mg677   2.297       .  S
O671        C690   1.271       .  A
O672        C692   1.278   1_556  A
O672       Mg688   2.329       .  S
O674       Mg688   2.130       .  S
O674        C685   1.238       .  S
O675       Mg694   2.134   1_655  S
O676       Mg688   2.305       .  S
Mg677       O693   2.254       .  S
O678       Mg694   2.262       .  S
H679        C684   1.082       .  S
O680       Mg688   2.124   1_554  S
O680        C683   1.238       .  S
H681        C683   1.081       .  S
H682        C685   1.082       .  S
O687       Mg694   2.289   1_554  S
C690        O695   1.275   1_455  A
C690       C1993   1.486       .  S
O691        C692   1.269       .  A
C692       C1984   1.491       .  S
C697       C1960   1.481       .  S
C697        C698   1.401       .  A
C697        C702   1.404       .  A
C698        H703   1.084       .  S
C698        C699   1.401       .  A
C699       C1969   1.480       .  S
C699        C700   1.404       .  A
C700        H704   1.083       .  S
C700        C701   1.408       .  A
C701       C1945   1.497       .  S
C701        C702   1.410       .  A
C702        H705   1.084       .  S
C706       C1933   1.474       .  S
C706        C707   1.395       .  A
C706        C711   1.401       .  A
C707        H712   1.085       .  S
C707        C708   1.397       .  A
C708       C2425   1.486   1_455  S
C708        C709   1.406   1_455  A
C709        H713   1.084       .  S
C709        C710   1.410       .  A
C710       C1957   1.481       .  S
C710        C711   1.408   1_655  A
C711        H714   1.084       .  S
C715       C2629   1.471   1_565  S
C715        C716   1.392       .  A
C715        C720   1.400   1_565  A
C716        H721   1.085       .  S
C716        C717   1.395       .  A
C717       C2896   1.478       .  S
C717        C718   1.404       .  A
C718        H722   1.084       .  S
C718        C719   1.411   1_565  A
C719       C1972   1.487       .  S
C719        C720   1.410       .  A
C720        H723   1.084       .  S
C724       C1921   1.479       .  S
C724        C725   1.395       .  A
C724        C729   1.405       .  A
C725        H730   1.085       .  S
C725        C726   1.394       .  A
C726       C2737   1.472       .  S
C726        C727   1.401       .  A
C727        H731   1.084       .  S
C727        C728   1.409       .  A
C728       C1948   1.483       .  S
C728        C729   1.411       .  A
C729        H732   1.084       .  S
C733       C1897   1.476       .  S
C733        C734   1.403       .  A
C733        C738   1.394       .  A
C734        H739   1.083       .  S
C734        C735   1.411   1_655  A
C735       C1909   1.491       .  S
C735        C736   1.412       .  A
C736        H740   1.083       .  S
C736        C737   1.403   1_455  A
C737       C1885   1.481       .  S
C737        C738   1.394       .  A
C738        H741   1.085       .  S
C742       C1864   1.477       .  S
C742        C743   1.391       .  A
C742        C747   1.403       .  A
C743        H748   1.085       .  S
C743        C744   1.390       .  A
C744       C2020   1.472   1_556  S
C744        C745   1.401   1_556  A
C745        H749   1.079       .  S
C745        C746   1.417       .  A
C746       C1873   1.513       .  S
C746        C747   1.419   1_554  A
C747        H750   1.081       .  S
C751       C1849   1.485       .  S
C751        C752   1.397       .  A
C751        C756   1.404       .  A
C752        H757   1.084       .  S
C752        C753   1.400       .  A
C753       C1912   1.487       .  S
C753        C754   1.406       .  A
C754        H758   1.079       .  S
C754        C755   1.419       .  A
C755       C1876   1.522       .  S
C755        C756   1.415       .  A
C756        H759   1.077       .  S
C760       C1837   1.475       .  S
C760        C761   1.395       .  A
C760        C765   1.403       .  A
C761        H766   1.085       .  S
C761        C762   1.397       .  A
C762       C2188   1.477       .  S
C762        C763   1.404   1_565  A
C763        H767   1.084       .  S
C763        C764   1.407       .  A
C764       C1852   1.479       .  S
C764        C765   1.407   1_545  A
C765        H768   1.084       .  S
O769       Mg771   2.121       .  S
O769       Mg777   2.134       .  S
O769        C804   1.237       .  S
C770        O783   1.237       .  S
C770        O807   1.270       .  A
C770        H809   1.082       .  S
Mg771       O800   2.135       .  S
Mg771       O815   2.314       .  S
Mg771       O811   2.234       .  S
Mg771       O782   2.300       .  S
O772       Mg814   2.149       .  S
O772       Mg797   2.115       .  S
O772        C793   1.237       .  S
O773        C804   1.270       .  A
O773       Mg797   2.295       .  S
C774        O776   1.274       .  A
C774        O788   1.275       .  A
C774       C2113   1.482       .  S
O775        C803   1.272       .  A
O775       Mg777   2.305       .  S
O776       Mg808   2.264       .  S
Mg777       O783   2.121       .  S
Mg777       O791   2.239       .  S
Mg777       O779   2.319       .  S
C778        O816   1.272       .  A
C778        O784   1.275       .  A
C778       C1825   1.470       .  S
O779        C786   1.276       .  A
H780        C793   1.082       .  S
C781        O795   1.238       .  S
C781        O796   1.271       .  A
C781        H806   1.082       .  S
O782        C805   1.271       .  A
O783       Mg797   2.139       .  S
O784       Mg814   2.302       .  S
C785        O798   1.273       .  A
C785        O790   1.273       .  A
C785       C1861   1.474       .  S
C786        O813   1.269       .  A
C786       C1936   1.492       .  S
Mg787       O794   2.125       .  S
Mg787       O795   2.152       .  S
Mg787       O788   2.299       .  S
Mg787       O789   2.285       .  S
Mg787       O816   2.252       .  S
O789        C793   1.269       .  A
O790       Mg797   2.291       .  S
O791        C810   1.271       .  A
O792        C812   1.277       .  A
O792       Mg808   2.322       .  S
O794       Mg808   2.141       .  S
O794        C805   1.237       .  S
O795       Mg814   2.127       .  S
O796       Mg808   2.295       .  S
Mg797       O813   2.232       .  S
O798       Mg814   2.261       .  S
H799        C804   1.082       .  S
O800       Mg808   2.139       .  S
O800        C803   1.238       .  S
H801        C803   1.082       .  S
H802        C805   1.082       .  S
O807       Mg814   2.290       .  S
C810        O815   1.275       .  A
C810       C2269   1.487       .  S
O811        C812   1.269       .  A
C812       C2788   1.492       .  S
O817       Mg819   2.124       .  S
O817       Mg825   2.135       .  S
O817        C852   1.238       .  S
C818        O831   1.238       .  S
C818        O855   1.271       .  A
C818        H857   1.082       .  S
Mg819       O848   2.134       .  S
Mg819       O863   2.313       .  S
Mg819       O859   2.246       .  S
Mg819       O830   2.299       .  S
O820       Mg862   2.138       .  S
O820       Mg845   2.123       .  S
O820        C841   1.238       .  S
O821        C852   1.272       .  A
O821       Mg845   2.300       .  S
C822        O824   1.273       .  A
C822        O836   1.275       .  A
C822       C1816   1.491       .  S
O823        C851   1.272       .  A
O823       Mg825   2.302       .  S
O824       Mg856   2.248       .  S
Mg825       O831   2.123       .  S
Mg825       O839   2.248       .  S
Mg825       O827   2.308       .  S
C826        O864   1.272       .  A
C826        O832   1.275       .  A
C826       C1924   1.477       .  S
O827        C834   1.275       .  A
H828        C841   1.082       .  S
C829        O843   1.238       .  S
C829        O844   1.271       .  A
C829        H854   1.081       .  S
O830        C853   1.271       .  A
O831       Mg845   2.138       .  S
O832       Mg862   2.303       .  S
C833        O846   1.270       .  A
C833        O838   1.277       .  A
C833       C1900   1.492       .  S
C834        O861   1.273       .  A
C834       C1804   1.493       .  S
Mg835       O842   2.124       .  S
Mg835       O843   2.142       .  S
Mg835       O836   2.308       .  S
Mg835       O837   2.293       .  S
Mg835       O864   2.256       .  S
O837        C841   1.271       .  A
O838       Mg845   2.318       .  S
O839        C858   1.272       .  A
O840        C860   1.277       .  A
O840       Mg856   2.317       .  S
O842       Mg856   2.135       .  S
O842        C853   1.238       .  S
O843       Mg862   2.117       .  S
O844       Mg856   2.296       .  S
Mg845       O861   2.252       .  S
O846       Mg862   2.238       .  S
H847        C852   1.081       .  S
O848       Mg856   2.128       .  S
O848        C851   1.238       .  S
H849        C851   1.082       .  S
H850        C853   1.082       .  S
O855       Mg862   2.296       .  S
C858        O863   1.275       .  A
C858       C2152   1.486       .  S
O859        C860   1.271       .  A
C860       C2821   1.492       .  S
C865       C1780   1.495       .  S
C865        C866   1.401       .  A
C865        C870   1.408       .  A
C866        H871   1.084       .  S
C866        C867   1.398       .  A
C867       C2440   1.488   1_554  S
C867        C868   1.403   1_554  A
C868        H872   1.083       .  S
C868        C869   1.408       .  A
C869       C1789   1.484       .  S
C869        C870   1.410   1_556  A
C870        H873   1.083       .  S
C874       C1753   1.482       .  S
C874        C875   1.400       .  A
C874        C879   1.402       .  A
C875        H880   1.083       .  S
C875        C876   1.402       .  A
C876       C1792   1.495       .  S
C876        C877   1.408       .  A
C877        H881   1.080       .  S
C877        C878   1.417       .  A
C878       C1765   1.518       .  S
C878        C879   1.414       .  A
C879        H882   1.079       .  S
C883       C2704   1.482       .  S
C883        C884   1.389       .  A
C883        C888   1.404   1_655  A
C884        H889   1.086       .  S
C884        C885   1.387       .  A
C885       C2920   1.476       .  S
C885        C886   1.401       .  A
C886        H890   1.078       .  S
C886        C887   1.422   1_655  A
C887       C1768   1.521       .  S
C887        C888   1.425       .  A
C888        H891   1.080       .  S
C892       C1828   1.484       .  S
C892        C893   1.398       .  A
C892        C897   1.407       .  A
C893        H898   1.085       .  S
C893        C894   1.392       .  A
C894       C2560   1.473       .  S
C894        C895   1.399       .  A
C895        H899   1.084       .  S
C895        C896   1.411       .  A
C896       C1756   1.492       .  S
C896        C897   1.412       .  A
C897        H900   1.083       .  S
O901       Mg903   2.128       .  S
O901       Mg909   2.145       .  S
O901        C936   1.238       .  S
C902        O915   1.238       .  S
C902        O939   1.272       .  A
C902        H941   1.082       .  S
Mg903       O932   2.140       .  S
Mg903       O947   2.299       .  S
Mg903       O943   2.261       .  S
Mg903       O914   2.301       .  S
O904       Mg946   2.138       .  S
O904       Mg929   2.119       .  S
O904        C925   1.237       .  S
O905        C936   1.272       .  A
O905       Mg929   2.302       .  S
C906        O908   1.273       .  A
C906        O920   1.273       .  A
C906       C1741   1.488       .  S
O907        C935   1.272       .  A
O907       Mg909   2.305       .  S
O908       Mg940   2.273       .  S
Mg909       O915   2.130       .  S
Mg909       O923   2.270       .  S
Mg909       O911   2.304       .  S
C910        O948   1.272       .  A
C910        O916   1.275       .  A
C910       C2221   1.479       .  S
O911        C918   1.276       .  A
H912        C925   1.081       .  S
C913        O927   1.238       .  S
C913        O928   1.271       .  A
C913        H938   1.082       .  S
O914        C937   1.271       .  A
O915       Mg929   2.142       .  S
O916       Mg946   2.308       .  S
C917        O930   1.271       .  A
C917        O922   1.276       .  A
C917       C2761   1.487       .  S
C918        O945   1.271       .  A
C918       C1729   1.484       .  S
Mg919       O926   2.132       .  S
Mg919       O927   2.138       .  S
Mg919       O920   2.279       .  S
Mg919       O921   2.294       .  S
Mg919       O948   2.270       .  S
O921        C925   1.270       .  A
O922       Mg929   2.303       .  S
O923        C942   1.272       .  A
O924        C944   1.275       .  A
O924       Mg940   2.313       .  S
O926       Mg940   2.147       .  S
O926        C937   1.237       .  S
O927       Mg946   2.124       .  S
O928       Mg940   2.298       .  S
Mg929       O945   2.253       .  S
O930       Mg946   2.254       .  S
H931        C936   1.082       .  S
O932       Mg940   2.140       .  S
O932        C935   1.238       .  S
H933        C935   1.081       .  S
H934        C937   1.082       .  S
O939       Mg946   2.299       .  S
C942        O947   1.275       .  A
C942       C1777   1.494       .  S
O943        C944   1.271       .  A
C944       C1840   1.473       .  S
C949       C1801   1.476       .  S
C949        C950   1.395       .  A
C949        C954   1.403       .  A
C950        H955   1.085       .  S
C950        C951   1.395       .  A
C951       C2413   1.480   1_545  S
C951        C952   1.405   1_545  A
C952        H956   1.084       .  S
C952        C953   1.409       .  A
C953       C1717   1.482       .  S
C953        C954   1.409   1_565  A
C954        H957   1.084       .  S
C958       C1693   1.496       .  S
C958        C959   1.407       .  A
C958        C963   1.407       .  A
C959        H964   1.083       .  S
C959        C960   1.408       .  A
C960       C1720   1.490       .  S
C960        C961   1.407       .  A
C961        H965   1.083       .  S
C961        C962   1.406       .  A
C962       C1705   1.494       .  S
C962        C963   1.405       .  A
C963        H966   1.083       .  S
C967       C2908   1.475       .  S
C967        C968   1.395       .  A
C967        C972   1.403       .  A
C968        H973   1.085       .  S
C968        C969   1.396       .  A
C969       C2524   1.481   1_556  S
C969        C970   1.405   1_556  A
C970        H974   1.084       .  S
C970        C971   1.409       .  A
C971       C1708   1.483       .  S
C971        C972   1.408   1_554  A
C972        H975   1.084       .  S
C976       C1744   1.491       .  S
C976        C977   1.393       .  A
C976        C981   1.408       .  A
C977        H982   1.084       .  S
C977        C978   1.390       .  A
C978       C2656   1.486       .  S
C978        C979   1.405       .  A
C979        H983   1.082       .  S
C979        C980   1.423       .  A
C980       C1696   1.518       .  S
C980        C981   1.421       .  A
C981        H984   1.078       .  S
C985       C1657   1.482       .  S
C985        C986   1.402       .  A
C985        C990   1.402       .  A
C986        H991   1.084       .  S
C986        C987   1.406       .  A
C987       C1681   1.490       .  S
C987        C988   1.407       .  A
C988        H992   1.084       .  S
C988        C989   1.407       .  A
C989       C1669   1.492       .  S
C989        C990   1.405       .  A
C990        H993   1.084       .  S
C994       C1996   1.478       .  S
C994        C995   1.396       .  A
C994        C999   1.403   1_455  A
C995       H1000   1.085       .  S
C995        C996   1.393       .  A
C996       C1732   1.473       .  S
C996        C997   1.402       .  A
C997       H1001   1.084       .  S
C997        C998   1.408   1_455  A
C998       C1672   1.481       .  S
C998        C999   1.408       .  A
C999       H1002   1.084       .  S
C1003      C2860   1.481       .  S
C1003      C1004   1.406       .  A
C1003      C1008   1.396       .  A
C1004      H1009   1.083       .  S
C1004      C1005   1.413       .  A
C1005      C1660   1.492       .  S
C1005      C1006   1.411       .  A
C1006      H1010   1.083       .  S
C1006      C1007   1.399       .  A
C1007      C1645   1.472       .  S
C1007      C1008   1.392       .  A
C1008      H1011   1.085       .  S
C1012      C1813   1.478       .  S
C1012      C1013   1.395       .  A
C1012      C1017   1.403       .  A
C1013      H1018   1.085       .  S
C1013      C1014   1.396       .  A
C1014      C2464   1.481       .  S
C1014      C1015   1.404       .  A
C1015      H1019   1.084       .  S
C1015      C1016   1.408       .  A
C1016      C1684   1.479       .  S
C1016      C1017   1.409       .  A
C1017      H1020   1.084       .  S
C1021      C3052   1.477       .  S
C1021      C1022   1.391       .  A
C1021      C1026   1.404       .  A
C1022      H1027   1.086       .  S
C1022      C1023   1.389       .  A
C1023      C2392   1.475   1_655  S
C1023      C1024   1.401   1_655  A
C1024      H1028   1.079       .  S
C1024      C1025   1.419       .  A
C1025      C1633   1.517       .  S
C1025      C1026   1.422   1_455  A
C1026      H1029   1.080       .  S
C1030      C1636   1.517       .  S
C1030      C1031   1.415       .  A
C1030      C1035   1.418       .  A
C1031      H1036   1.078       .  S
C1031      C1032   1.403       .  A
C1032      C1621   1.484       .  S
C1032      C1033   1.398       .  A
C1033      H1037   1.084       .  S
C1033      C1034   1.399       .  A
C1034      C1612   1.486       .  S
C1034      C1035   1.404       .  A
C1035      H1038   1.079       .  S
C1039      C2680   1.470       .  S
C1039      C1040   1.398   1_545  A
C1039      C1044   1.391       .  A
C1040      H1045   1.083       .  S
C1040      C1041   1.411       .  A
C1041      C1609   1.490       .  S
C1041      C1042   1.413   1_565  A
C1042      H1046   1.084       .  S
C1042      C1043   1.407       .  A
C1043      C1597   1.483       .  S
C1043      C1044   1.396       .  A
C1044      H1047   1.085       .  S
C1048      C1588   1.472       .  S
C1048      C1049   1.391       .  A
C1048      C1053   1.401       .  A
C1049      H1054   1.085       .  S
C1049      C1050   1.395       .  A
C1050      C2689   1.480       .  S
C1050      C1051   1.405       .  A
C1051      H1055   1.083       .  S
C1051      C1052   1.412       .  A
C1052      C1624   1.491       .  S
C1052      C1053   1.412       .  A
C1053      H1056   1.084       .  S
C1057      C1561   1.474       .  S
C1057      C1058   1.394       .  A
C1057      C1062   1.400       .  A
C1058      H1063   1.085       .  S
C1058      C1059   1.400       .  A
C1059      C2377   1.486       .  S
C1059      C1060   1.407   1_565  A
C1060      H1064   1.083       .  S
C1060      C1061   1.410       .  A
C1061      C1573   1.484       .  S
C1061      C1062   1.408   1_545  A
C1062      H1065   1.084       .  S
C1066      C1549   1.487       .  S
C1066      C1067   1.403       .  A
C1066      C1071   1.404       .  A
C1067      H1072   1.083       .  S
C1067      C1068   1.407       .  A
C1068      C1576   1.497       .  S
C1068      C1069   1.408       .  A
C1069      H1073   1.082       .  S
C1069      C1070   1.408       .  A
C1070      C1540   1.495       .  S
C1070      C1071   1.407       .  A
C1071      H1074   1.084       .  S
C1075      C1528   1.478       .  S
C1075      C1076   1.396       .  A
C1075      C1080   1.404       .  A
C1076      H1081   1.085       .  S
C1076      C1077   1.395       .  A
C1077      C2545   1.479   1_554  S
C1077      C1078   1.403   1_554  A
C1078      H1082   1.084       .  S
C1078      C1079   1.410       .  A
C1079      C1537   1.484       .  S
C1079      C1080   1.409   1_556  A
C1080      H1083   1.084       .  S
C1084      C2941   1.473       .  S
C1084      C1085   1.394       .  A
C1084      C1089   1.401       .  A
C1085      H1090   1.085       .  S
C1085      C1086   1.397       .  A
C1086      C2644   1.482       .  S
C1086      C1087   1.407       .  A
C1087      H1091   1.084       .  S
C1087      C1088   1.409       .  A
C1088      C1552   1.480       .  S
C1088      C1089   1.406       .  A
C1089      H1092   1.084       .  S
O1093     Mg1095   2.122       .  S
O1093     Mg1101   2.137       .  S
O1093      C1128   1.238       .  S
C1094      O1107   1.238   1_655  S
C1094      O1131   1.271   1_545  A
C1094      H1133   1.082   1_655  S
Mg1095     O1124   2.143   1_455  S
Mg1095     O1139   2.312       .  S
Mg1095     O1135   2.261       .  S
Mg1095     O1106   2.301       .  S
O1096     Mg1138   2.138   1_455  S
O1096     Mg1121   2.125       .  S
O1096      C1117   1.238       .  S
O1097      C1128   1.271   1_565  A
O1097     Mg1121   2.297       .  S
C1098      O1100   1.271       .  A
C1098      O1112   1.275   1_545  A
C1098      C2353   1.476       .  S
O1099      C1127   1.272   1_455  A
O1099     Mg1101   2.299       .  S
O1100     Mg1132   2.262       .  S
Mg1101     O1107   2.126       .  S
Mg1101     O1115   2.258       .  S
Mg1101     O1103   2.302       .  S
C1102      O1140   1.271       .  A
C1102      O1108   1.274       .  A
C1102      C1648   1.473       .  S
O1103      C1110   1.276   1_545  A
H1104      C1117   1.082       .  S
C1105      O1119   1.238       .  S
C1105      O1120   1.273   1_565  A
C1105      H1130   1.081       .  S
O1106      C1129   1.271   1_445  A
O1107     Mg1121   2.143   1_545  S
O1108     Mg1138   2.304       .  S
C1109      O1122   1.270       .  A
C1109      O1114   1.277   1_655  A
C1109      C1504   1.489       .  S
C1110      O1137   1.272       .  A
C1110      C2281   1.482       .  S
Mg1111     O1118   2.127       .  S
Mg1111     O1119   2.133       .  S
Mg1111     O1112   2.305       .  S
Mg1111     O1113   2.302       .  S
Mg1111     O1140   2.255       .  S
O1113      C1117   1.272   1_655  A
O1114     Mg1121   2.306       .  S
O1115      C1134   1.271       .  A
O1116      C1136   1.276   1_655  A
O1116     Mg1132   2.298       .  S
O1118     Mg1132   2.136   1_565  S
O1118      C1129   1.238       .  S
O1119     Mg1138   2.129       .  S
O1120     Mg1132   2.305       .  S
Mg1121     O1137   2.260       .  S
O1122     Mg1138   2.252       .  S
H1123      C1128   1.082       .  S
O1124     Mg1132   2.128       .  S
O1124      C1127   1.239       .  S
H1125      C1127   1.082       .  S
H1126      C1129   1.082       .  S
O1131     Mg1138   2.297       .  S
C1134      O1139   1.275       .  A
C1134      C1513   1.469       .  S
O1135      C1136   1.271       .  A
C1136      C1888   1.493       .  S
C1141      C2005   1.486   1_655  S
C1141      C1142   1.395       .  A
C1141      C1146   1.405   1_655  A
C1142      H1147   1.085       .  S
C1142      C1143   1.396       .  A
C1143      C2989   1.486       .  S
C1143      C1144   1.406       .  A
C1144      H1148   1.083       .  S
C1144      C1145   1.412   1_655  A
C1145      C1489   1.485       .  S
C1145      C1146   1.412       .  A
C1146      H1149   1.083       .  S
C1150      C1492   1.497       .  S
C1150      C1151   1.408       .  A
C1150      C1155   1.408       .  A
C1151      H1156   1.084       .  S
C1151      C1152   1.404       .  A
C1152      C1480   1.488       .  S
C1152      C1153   1.405       .  A
C1153      H1157   1.084       .  S
C1153      C1154   1.408       .  A
C1154      C1465   1.498       .  S
C1154      C1155   1.409       .  A
C1155      H1158   1.082       .  S
C1159      C1516   1.489       .  S
C1159      C1160   1.398       .  A
C1159      C1164   1.407       .  A
C1160      H1165   1.085       .  S
C1160      C1161   1.396       .  A
C1161      C1453   1.481       .  S
C1161      C1162   1.403       .  A
C1162      H1166   1.084       .  S
C1162      C1163   1.410       .  A
C1163      C1468   1.485       .  S
C1163      C1164   1.411       .  A
C1164      H1167   1.083       .  S
C1168      C2500   1.476       .  S
C1168      C1169   1.402       .  A
C1168      C1173   1.392       .  A
C1169      H1174   1.082       .  S
C1169      C1170   1.414       .  A
C1170      C1477   1.504       .  S
C1170      C1171   1.417       .  A
C1171      H1175   1.083       .  S
C1171      C1172   1.408       .  A
C1172      C1441   1.485       .  S
C1172      C1173   1.396       .  A
C1173      H1176   1.085       .  S
O1177     Mg1179   2.134       .  S
O1177     Mg1185   2.137       .  S
O1177      C1212   1.238       .  S
C1178      O1191   1.237       .  S
C1178      O1215   1.270       .  A
C1178      H1217   1.082       .  S
Mg1179     O1208   2.139       .  S
Mg1179     O1223   2.322       .  S
Mg1179     O1219   2.253       .  S
Mg1179     O1190   2.295       .  S
O1180     Mg1222   2.139       .  S
O1180     Mg1205   2.119       .  S
O1180      C1201   1.238       .  S
O1181      C1212   1.272       .  A
O1181     Mg1205   2.302       .  S
C1182      O1184   1.274       .  A
C1182      O1196   1.274       .  A
C1182      C1429   1.481       .  S
O1183      C1211   1.272       .  A
O1183     Mg1185   2.302       .  S
O1184     Mg1216   2.265       .  S
Mg1185     O1191   2.126       .  S
Mg1185     O1199   2.239       .  S
Mg1185     O1187   2.323       .  S
C1186      O1224   1.271       .  A
C1186      O1192   1.273       .  A
C1186      C2032   1.475       .  S
O1187      C1194   1.277       .  A
H1188      C1201   1.082       .  S
C1189      O1203   1.238       .  S
C1189      O1204   1.270       .  A
C1189      H1214   1.082       .  S
O1190      C1213   1.270       .  A
O1191     Mg1205   2.136       .  S
O1192     Mg1222   2.293       .  S
C1193      O1206   1.268       .  A
C1193      O1198   1.278       .  A
C1193      C1525   1.493       .  S
C1194      O1221   1.270       .  A
C1194      C2308   1.489       .  S
Mg1195     O1202   2.121       .  S
Mg1195     O1203   2.144       .  S
Mg1195     O1196   2.292       .  S
Mg1195     O1197   2.292       .  S
Mg1195     O1224   2.250       .  S
O1197      C1201   1.271       .  A
O1198     Mg1205   2.327       .  S
O1199      C1218   1.271       .  A
O1200      C1220   1.276       .  A
O1200     Mg1216   2.315       .  S
O1202     Mg1216   2.143       .  S
O1202      C1213   1.237       .  S
O1203     Mg1222   2.114       .  S
O1204     Mg1216   2.291       .  S
Mg1205     O1221   2.234       .  S
O1206     Mg1222   2.230       .  S
H1207      C1212   1.082       .  S
O1208     Mg1216   2.134       .  S
O1208      C1211   1.238       .  S
H1209      C1211   1.082       .  S
H1210      C1213   1.082       .  S
O1215     Mg1222   2.295       .  S
C1218      O1223   1.277       .  A
C1218      C1600   1.487       .  S
O1219      C1220   1.274       .  A
C1220      C1456   1.493       .  S
C1225      C1393   1.483       .  S
C1225      C1226   1.404       .  A
C1225      C1230   1.405       .  A
C1226      H1231   1.084       .  S
C1226      C1227   1.403       .  A
C1227      C1417   1.480       .  S
C1227      C1228   1.403       .  A
C1228      H1232   1.084       .  S
C1228      C1229   1.403       .  A
C1229      C1405   1.480       .  S
C1229      C1230   1.404       .  A
C1230      H1233   1.084       .  S
C1234      C2980   1.494       .  S
C1234      C1235   1.399       .  A
C1234      C1239   1.408       .  A
C1235      H1240   1.085       .  S
C1235      C1236   1.394       .  A
C1236      C2401   1.487   1_556  S
C1236      C1237   1.403   1_556  A
C1237      H1241   1.083       .  S
C1237      C1238   1.413       .  A
C1238      C1396   1.494       .  S
C1238      C1239   1.416   1_554  A
C1239      H1242   1.083       .  S
C1243      C2728   1.481       .  S
C1243      C1244   1.406   1_455  A
C1243      C1248   1.396       .  A
C1244      H1249   1.084       .  S
C1244      C1245   1.409       .  A
C1245      C1408   1.482       .  S
C1245      C1246   1.409   1_655  A
C1246      H1250   1.084       .  S
C1246      C1247   1.402       .  A
C1247      C1432   1.474       .  S
C1247      C1248   1.393       .  A
C1248      H1251   1.085       .  S
C1252      C2536   1.484       .  S
C1252      C1253   1.396       .  A
C1252      C1257   1.405       .  A
C1253      H1258   1.085       .  S
C1253      C1254   1.396       .  A
C1254      C3004   1.481       .  S
C1254      C1255   1.404       .  A
C1255      H1259   1.084       .  S
C1255      C1256   1.407       .  A
C1256      C1420   1.479       .  S
C1256      C1257   1.408       .  A
C1257      H1260   1.084       .  S
C1261      C1357   1.486       .  S
C1261      C1262   1.406       .  A
C1261      C1266   1.399       .  A
C1262      H1267   1.080       .  S
C1262      C1263   1.413       .  A
C1263      C1381   1.511       .  S
C1263      C1264   1.415       .  A
C1264      H1268   1.081       .  S
C1264      C1265   1.408       .  A
C1265      C1369   1.495       .  S
C1265      C1266   1.403       .  A
C1266      H1269   1.084       .  S
C1270      C1345   1.476       .  S
C1270      C1271   1.405       .  A
C1270      C1275   1.395       .  A
C1271      H1276   1.083       .  S
C1271      C1272   1.412   1_455  A
C1272      C1384   1.491       .  S
C1272      C1273   1.410       .  A
C1273      H1277   1.084       .  S
C1273      C1274   1.403   1_655  A
C1274      C1501   1.479   1_455  S
C1274      C1275   1.395       .  A
C1275      H1278   1.085       .  S
C1279      C2929   1.477       .  S
C1279      C1280   1.392       .  A
C1279      C1284   1.403       .  A
C1280      H1285   1.086       .  S
C1280      C1281   1.391       .  A
C1281      C2176   1.474   1_545  S
C1281      C1282   1.403   1_545  A
C1282      H1286   1.080       .  S
C1282      C1283   1.416       .  A
C1283      C1360   1.506       .  S
C1283      C1284   1.417   1_565  A
C1284      H1287   1.083       .  S
C1288      C3016   1.482       .  S
C1288      C1289   1.397       .  A
C1288      C1293   1.405       .  A
C1289      H1294   1.085       .  S
C1289      C1290   1.392       .  A
C1290      C1981   1.472   1_554  S
C1290      C1291   1.401   1_554  A
C1291      H1295   1.084       .  S
C1291      C1292   1.409       .  A
C1292      C1372   1.484       .  S
C1292      C1293   1.411   1_556  A
C1293      H1296   1.084       .  S
O1297     Mg1299   2.128       .  S
O1297     Mg1305   2.146       .  S
O1297      C1332   1.238       .  S
C1298      O1311   1.237       .  S
C1298      O1335   1.271       .  A
C1298      H1337   1.082       .  S
Mg1299     O1328   2.141       .  S
Mg1299     O1343   2.299       .  S
Mg1299     O1339   2.257       .  S
Mg1299     O1310   2.293       .  S
O1300     Mg1342   2.141       .  S
O1300     Mg1325   2.137       .  S
O1300      C1321   1.238       .  S
O1301      C1332   1.271       .  A
O1301     Mg1325   2.295       .  S
C1302      O1304   1.271       .  A
C1302      O1316   1.276       .  A
C1302      C1564   1.484       .  S
O1303      C1331   1.270       .  A
O1303     Mg1305   2.293       .  S
O1304     Mg1336   2.248       .  S
Mg1305     O1311   2.124       .  S
Mg1305     O1319   2.257       .  S
Mg1305     O1307   2.308       .  S
C1306      O1344   1.269       .  A
C1306      O1312   1.277       .  A
C1306      C2080   1.486       .  S
O1307      C1314   1.276       .  A
H1308      C1321   1.082       .  S
C1309      O1323   1.238       .  S
C1309      O1324   1.272       .  A
C1309      H1334   1.081       .  S
O1310      C1333   1.271       .  A
O1311     Mg1325   2.144       .  S
O1312     Mg1342   2.327       .  S
C1313      O1326   1.272       .  A
C1313      O1318   1.277       .  A
C1313      C2569   1.487       .  S
C1314      O1341   1.274       .  A
C1314      C1444   1.480       .  S
Mg1315     O1322   2.117       .  S
Mg1315     O1323   2.137       .  S
Mg1315     O1316   2.314       .  S
Mg1315     O1317   2.301       .  S
Mg1315     O1344   2.231       .  S
O1317      C1321   1.272       .  A
O1318     Mg1325   2.317       .  S
O1319      C1338   1.274       .  A
O1320      C1340   1.275       .  A
O1320     Mg1336   2.302       .  S
O1322     Mg1336   2.140       .  S
O1322      C1333   1.238       .  S
O1323     Mg1342   2.133       .  S
O1324     Mg1336   2.300       .  S
Mg1325     O1341   2.267       .  S
O1326     Mg1342   2.252       .  S
H1327      C1332   1.081       .  S
O1328     Mg1336   2.117       .  S
O1328      C1331   1.237       .  S
H1329      C1331   1.082       .  S
H1330      C1333   1.082       .  S
O1335     Mg1342   2.298       .  S
C1338      O1343   1.275       .  A
C1338      C1585   1.484       .  S
O1339      C1340   1.273       .  A
C1340      C1348   1.483       .  S
C1345      C1346   1.404       .  A
C1345      C1350   1.407       .  A
C1346      H1351   1.085       .  S
C1346      C1347   1.401       .  A
C1347      C1348   1.414       .  A
C1347      C1354   1.445       .  S
C1348      C1349   1.407       .  A
C1349      H1352   1.085       .  S
C1349      C1350   1.399       .  A
C1350      C1353   1.444       .  S
C1353      N1355   1.157       .  T
C1354      N1356   1.157       .  T
C1357      C1358   1.401       .  A
C1357      C1362   1.408       .  A
C1358      H1363   1.085       .  S
C1358      C1359   1.404       .  A
C1359      C1360   1.423       .  A
C1359      C1366   1.443       .  S
C1360      C1361   1.411       .  A
C1361      H1364   1.083       .  S
C1361      C1362   1.402       .  A
C1362      C1365   1.443       .  S
C1365      N1367   1.157       .  T
C1366      N1368   1.158       .  T
C1369      C1370   1.408       .  A
C1369      C1374   1.416       .  A
C1370      H1375   1.085       .  S
C1370      C1371   1.401       .  A
C1371      C1372   1.410       .  A
C1371      C1378   1.444       .  S
C1372      C1373   1.403       .  A
C1373      H1376   1.085       .  S
C1373      C1374   1.404       .  A
C1374      C1377   1.444       .  S
C1377      N1379   1.157       .  T
C1378      N1380   1.157       .  T
C1381      C1382   1.414       .  A
C1381      C1386   1.423       .  A
C1382      H1387   1.083       .  S
C1382      C1383   1.405       .  A
C1383      C1384   1.410       .  A
C1383      C1390   1.444       .  S
C1384      C1385   1.401       .  A
C1385      H1388   1.085       .  S
C1385      C1386   1.402       .  A
C1386      C1389   1.442       .  S
C1389      N1391   1.157       .  T
C1390      N1392   1.157       .  T
C1393      C1394   1.401       .  A
C1393      C1398   1.410       .  A
C1394      H1399   1.085       .  S
C1394      C1395   1.401       .  A
C1395      C1396   1.415       .  A
C1395      C1402   1.442       .  S
C1396      C1397   1.408       .  A
C1397      H1400   1.084       .  S
C1397      C1398   1.404       .  A
C1398      C1401   1.444       .  S
C1401      N1403   1.157       .  T
C1402      N1404   1.157   1_554  T
C1405      C1406   1.402       .  A
C1405      C1410   1.410       .  A
C1406      H1411   1.085       .  S
C1406      C1407   1.402       .  A
C1407      C1408   1.411       .  A
C1407      C1414   1.444       .  S
C1408      C1409   1.404       .  A
C1409      H1412   1.085       .  S
C1409      C1410   1.404       .  A
C1410      C1413   1.444       .  S
C1413      N1415   1.157       .  T
C1414      N1416   1.157   1_655  T
C1417      C1418   1.403       .  A
C1417      C1422   1.411       .  A
C1418      H1423   1.085       .  S
C1418      C1419   1.402       .  A
C1419      C1420   1.410       .  A
C1419      C1426   1.444       .  S
C1420      C1421   1.403       .  A
C1421      H1424   1.085       .  S
C1421      C1422   1.403       .  A
C1422      C1425   1.444       .  S
C1425      N1427   1.157       .  T
C1426      N1428   1.157       .  T
C1429      C1430   1.406       .  A
C1429      C1434   1.415       .  A
C1430      H1435   1.085       .  S
C1430      C1431   1.399       .  A
C1431      C1432   1.408       .  A
C1431      C1438   1.444       .  S
C1432      C1433   1.403       .  A
C1433      H1436   1.085       .  S
C1433      C1434   1.400       .  A
C1434      C1437   1.445       .  S
C1437      N1439   1.157       .  T
C1438      N1440   1.157       .  T
C1441      C1442   1.406       .  A
C1441      C1446   1.411       .  A
C1442      H1447   1.085       .  S
C1442      C1443   1.400       .  A
C1443      C1444   1.411       .  A
C1443      C1450   1.445       .  S
C1444      C1445   1.406       .  A
C1445      H1448   1.085       .  S
C1445      C1446   1.403       .  A
C1446      C1449   1.444       .  S
C1449      N1451   1.157       .  T
C1450      N1452   1.157       .  T
C1453      C1454   1.401       .  A
C1453      C1458   1.411       .  A
C1454      H1459   1.085       .  S
C1454      C1455   1.406       .  A
C1455      C1456   1.421       .  A
C1455      C1462   1.444       .  S
C1456      C1457   1.407       .  A
C1457      H1460   1.085       .  S
C1457      C1458   1.394       .  A
C1458      C1461   1.446       .  S
C1461      N1463   1.157       .  T
C1462      N1464   1.158       .  T
C1465      C1466   1.408       .  A
C1465      C1470   1.418       .  A
C1466      H1471   1.085       .  S
C1466      C1467   1.403       .  A
C1467      C1468   1.410       .  A
C1467      C1474   1.444       .  S
C1468      C1469   1.402       .  A
C1469      H1472   1.085       .  S
C1469      C1470   1.404       .  A
C1470      C1473   1.444       .  S
C1473      N1475   1.157       .  T
C1474      N1476   1.157       .  T
C1477      C1478   1.410       .  A
C1477      C1482   1.421       .  A
C1478      H1483   1.084       .  S
C1478      C1479   1.404       .  A
C1479      C1480   1.411       .  A
C1479      C1486   1.444       .  S
C1480      C1481   1.401       .  A
C1481      H1484   1.085       .  S
C1481      C1482   1.404       .  A
C1482      C1485   1.444       .  S
C1485      N1487   1.157       .  T
C1486      N1488   1.157       .  T
C1489      C1490   1.403       .  A
C1489      C1494   1.410       .  A
C1490      H1495   1.085       .  S
C1490      C1491   1.405       .  A
C1491      C1492   1.418       .  A
C1491      C1498   1.444       .  S
C1492      C1493   1.407       .  A
C1493      H1496   1.084       .  S
C1493      C1494   1.402       .  A
C1494      C1497   1.444       .  S
C1497      N1499   1.157       .  T
C1498      N1500   1.157       .  T
C1501      C1502   1.400       .  A
C1501      C1506   1.411   1_655  A
C1502      H1507   1.085       .  S
C1502      C1503   1.402       .  A
C1503      C1504   1.420       .  A
C1503      C1510   1.444       .  S
C1504      C1505   1.407   1_655  A
C1505      H1508   1.085       .  S
C1505      C1506   1.397       .  A
C1506      C1509   1.445       .  S
C1509      N1511   1.157       .  T
C1510      N1512   1.157       .  T
C1513      C1514   1.404       .  A
C1513      C1518   1.404       .  A
C1514      H1519   1.085       .  S
C1514      C1515   1.405       .  A
C1515      C1516   1.413       .  A
C1515      C1522   1.443       .  S
C1516      C1517   1.409       .  A
C1517      H1520   1.084       .  S
C1517      C1518   1.396       .  A
C1518      C1521   1.445       .  S
C1521      N1523   1.157       .  T
C1522      N1524   1.157       .  T
C1525      C1526   1.411       .  A
C1525      C1530   1.421       .  A
C1526      H1531   1.084       .  S
C1526      C1527   1.404       .  A
C1527      C1528   1.408       .  A
C1527      C1534   1.443       .  S
C1528      C1529   1.399       .  A
C1529      H1532   1.086       .  S
C1529      C1530   1.395       .  A
C1530      C1533   1.446       .  S
C1533      N1535   1.158       .  T
C1534      N1536   1.157       .  T
C1537      C1538   1.403       .  A
C1537      C1542   1.410       .  A
C1538      H1543   1.085       .  S
C1538      C1539   1.403       .  A
C1539      C1540   1.417       .  A
C1539      C1546   1.444       .  S
C1540      C1541   1.408       .  A
C1541      H1544   1.085       .  S
C1541      C1542   1.402       .  A
C1542      C1545   1.444       .  S
C1545      N1547   1.157       .  T
C1546      N1548   1.157       .  T
C1549      C1550   1.405       .  A
C1549      C1554   1.414       .  A
C1550      H1555   1.085       .  S
C1550      C1551   1.402       .  A
C1551      C1552   1.410       .  A
C1551      C1558   1.444       .  S
C1552      C1553   1.402       .  A
C1553      H1556   1.085       .  S
C1553      C1554   1.403       .  A
C1554      C1557   1.444       .  S
C1557      N1559   1.157       .  T
C1558      N1560   1.157       .  T
C1561      C1562   1.399       .  A
C1561      C1566   1.409       .  A
C1562      H1567   1.085       .  S
C1562      C1563   1.400       .  A
C1563      C1564   1.418       .  A
C1563      C1570   1.445       .  S
C1564      C1565   1.405       .  A
C1565      H1568   1.083       .  S
C1565      C1566   1.399       .  A
C1566      C1569   1.444       .  S
C1569      N1571   1.157       .  T
C1570      N1572   1.157       .  T
C1573      C1574   1.401       .  A
C1573      C1578   1.410       .  A
C1574      H1579   1.085       .  S
C1574      C1575   1.401       .  A
C1575      C1576   1.418       .  A
C1575      C1582   1.444       .  S
C1576      C1577   1.409       .  A
C1577      H1580   1.084       .  S
C1577      C1578   1.403       .  A
C1578      C1581   1.444       .  S
C1581      N1583   1.157       .  T
C1582      N1584   1.157       .  T
C1585      C1586   1.408       .  A
C1585      C1590   1.416       .  A
C1586      H1591   1.085       .  S
C1586      C1587   1.398       .  A
C1587      C1588   1.406       .  A
C1587      C1594   1.444       .  S
C1588      C1589   1.402       .  A
C1589      H1592   1.085       .  S
C1589      C1590   1.400       .  A
C1590      C1593   1.445       .  S
C1593      N1595   1.157       .  T
C1594      N1596   1.157       .  T
C1597      C1598   1.403       .  A
C1597      C1602   1.413       .  A
C1598      H1603   1.085       .  S
C1598      C1599   1.405       .  A
C1599      C1600   1.417       .  A
C1599      C1606   1.444       .  S
C1600      C1601   1.405       .  A
C1601      H1604   1.085       .  S
C1601      C1602   1.394       .  A
C1602      C1605   1.446       .  S
C1605      N1607   1.157       .  T
C1606      N1608   1.157       .  T
C1609      C1610   1.407       .  A
C1609      C1614   1.415       .  A
C1610      H1615   1.085       .  S
C1610      C1611   1.404       .  A
C1611      C1612   1.411       .  A
C1611      C1618   1.443       .  S
C1612      C1613   1.403       .  A
C1613      H1616   1.085       .  S
C1613      C1614   1.399       .  A
C1614      C1617   1.445       .  S
C1617      N1619   1.157       .  T
C1618      N1620   1.157       .  T
C1621      C1622   1.403       .  A
C1621      C1626   1.412       .  A
C1622      H1627   1.085       .  S
C1622      C1623   1.405       .  A
C1623      C1624   1.417       .  A
C1623      C1630   1.444       .  S
C1624      C1625   1.405       .  A
C1625      H1628   1.085       .  S
C1625      C1626   1.399       .  A
C1626      C1629   1.445       .  S
C1629      N1631   1.157       .  T
C1630      N1632   1.157       .  T
C1633      C1634   1.411       .  A
C1633      C1638   1.421       .  A
C1634      H1639   1.081       .  S
C1634      C1635   1.404       .  A
C1635      C1636   1.422       .  A
C1635      C1642   1.444       .  S
C1636      C1637   1.411       .  A
C1637      H1640   1.081       .  S
C1637      C1638   1.401       .  A
C1638      C1641   1.445       .  S
C1641      N1643   1.158       .  T
C1642      N1644   1.158       .  T
C1645      C1646   1.403       .  A
C1645      C1650   1.407       .  A
C1646      H1651   1.085       .  S
C1646      C1647   1.398       .  A
C1647      C1648   1.410       .  A
C1647      C1654   1.444       .  S
C1648      C1649   1.406       .  A
C1649      H1652   1.085       .  S
C1649      C1650   1.401       .  A
C1650      C1653   1.444       .  S
C1653      N1655   1.157       .  T
C1654      N1656   1.157       .  T
C1657      C1658   1.401       .  A
C1657      C1662   1.410       .  A
C1658      H1663   1.085       .  S
C1658      C1659   1.400       .  A
C1659      C1660   1.417       .  A
C1659      C1666   1.445       .  S
C1660      C1661   1.407       .  A
C1661      H1664   1.085       .  S
C1661      C1662   1.403       .  A
C1662      C1665   1.444       .  S
C1665      N1667   1.157       .  T
C1666      N1668   1.157       .  T
C1669      C1670   1.407       .  A
C1669      C1674   1.416       .  A
C1670      H1675   1.084       .  S
C1670      C1671   1.402       .  A
C1671      C1672   1.410       .  A
C1671      C1678   1.444       .  S
C1672      C1673   1.402       .  A
C1673      H1676   1.085       .  S
C1673      C1674   1.401       .  A
C1674      C1677   1.444       .  S
C1677      N1679   1.157       .  T
C1678      N1680   1.157       .  T
C1681      C1682   1.407       .  A
C1681      C1686   1.416       .  A
C1682      H1687   1.085       .  S
C1682      C1683   1.402       .  A
C1683      C1684   1.409       .  A
C1683      C1690   1.444       .  S
C1684      C1685   1.402       .  A
C1685      H1688   1.085       .  S
C1685      C1686   1.402       .  A
C1686      C1689   1.444       .  S
C1689      N1691   1.157       .  T
C1690      N1692   1.157       .  T
C1693      C1694   1.400       .  A
C1693      C1698   1.411       .  A
C1694      H1699   1.085       .  S
C1694      C1695   1.400       .  A
C1695      C1696   1.426       .  A
C1695      C1702   1.439       .  S
C1696      C1697   1.416       .  A
C1697      H1700   1.083       .  S
C1697      C1698   1.407       .  A
C1698      C1701   1.444       .  S
C1701      N1703   1.157       .  T
C1702      N1704   1.157       .  T
C1705      C1706   1.407       .  A
C1705      C1710   1.418       .  A
C1706      H1711   1.085       .  S
C1706      C1707   1.403       .  A
C1707      C1708   1.410       .  A
C1707      C1714   1.444       .  S
C1708      C1709   1.401       .  A
C1709      H1712   1.085       .  S
C1709      C1710   1.402       .  A
C1710      C1713   1.444       .  S
C1713      N1715   1.157       .  T
C1714      N1716   1.157       .  T
C1717      C1718   1.403       .  A
C1717      C1722   1.410       .  A
C1718      H1723   1.085       .  S
C1718      C1719   1.404       .  A
C1719      C1720   1.415       .  A
C1719      C1726   1.444       .  S
C1720      C1721   1.406       .  A
C1721      H1724   1.085       .  S
C1721      C1722   1.402       .  A
C1722      C1725   1.444       .  S
C1725      N1727   1.157       .  T
C1726      N1728   1.157       .  T
C1729      C1730   1.407       .  A
C1729      C1734   1.417       .  A
C1730      H1735   1.085       .  S
C1730      C1731   1.398       .  A
C1731      C1732   1.408       .  A
C1731      C1738   1.444       .  S
C1732      C1733   1.401       .  A
C1733      H1736   1.085       .  S
C1733      C1734   1.401       .  A
C1734      C1737   1.445       .  S
C1737      N1739   1.157       .  T
C1738      N1740   1.157       .  T
C1741      C1742   1.406       .  A
C1741      C1746   1.413       .  A
C1742      H1747   1.085       .  S
C1742      C1743   1.403       .  A
C1743      C1744   1.414       .  A
C1743      C1750   1.441       .  S
C1744      C1745   1.407       .  A
C1745      H1748   1.085       .  S
C1745      C1746   1.395       .  A
C1746      C1749   1.444       .  S
C1749      N1751   1.157       .  T
C1750      N1752   1.157       .  T
C1753      C1754   1.402       .  A
C1753      C1758   1.410       .  A
C1754      H1759   1.085       .  S
C1754      C1755   1.406       .  A
C1755      C1756   1.418       .  A
C1755      C1762   1.444       .  S
C1756      C1757   1.405       .  A
C1757      H1760   1.085       .  S
C1757      C1758   1.398       .  A
C1758      C1761   1.445       .  S
C1761      N1763   1.157       .  T
C1762      N1764   1.157       .  T
C1765      C1766   1.410       .  A
C1765      C1770   1.421       .  A
C1766      H1771   1.082       .  S
C1766      C1767   1.402       .  A
C1767      C1768   1.423       .  A
C1767      C1774   1.445       .  S
C1768      C1769   1.412       .  A
C1769      H1772   1.082       .  S
C1769      C1770   1.404       .  A
C1770      C1773   1.444       .  S
C1773      N1775   1.158       .  T
C1774      N1776   1.158       .  T
C1777      C1778   1.411       .  A
C1777      C1782   1.415       .  A
C1778      H1783   1.084       .  S
C1778      C1779   1.407       .  A
C1779      C1780   1.413       .  A
C1779      C1786   1.443       .  S
C1780      C1781   1.406       .  A
C1781      H1784   1.085       .  S
C1781      C1782   1.394       .  A
C1782      C1785   1.444       .  S
C1785      N1787   1.157       .  T
C1786      N1788   1.157       .  T
C1789      C1790   1.403       .  A
C1789      C1794   1.410       .  A
C1790      H1795   1.085       .  S
C1790      C1791   1.405       .  A
C1791      C1792   1.417       .  A
C1791      C1798   1.443       .  S
C1792      C1793   1.407       .  A
C1793      H1796   1.085       .  S
C1793      C1794   1.399       .  A
C1794      C1797   1.444       .  S
C1797      N1799   1.157       .  T
C1798      N1800   1.157       .  T
C1801      C1802   1.400       .  A
C1801      C1806   1.408       .  A
C1802      H1807   1.085       .  S
C1802      C1803   1.404       .  A
C1803      C1804   1.422       .  A
C1803      C1810   1.444       .  S
C1804      C1805   1.408       .  A
C1805      H1808   1.084       .  S
C1805      C1806   1.396       .  A
C1806      C1809   1.445       .  S
C1809      N1811   1.157       .  T
C1810      N1812   1.157       .  T
C1813      C1814   1.400       .  A
C1813      C1818   1.411       .  A
C1814      H1819   1.085       .  S
C1814      C1815   1.404       .  A
C1815      C1816   1.421       .  A
C1815      C1822   1.444       .  S
C1816      C1817   1.406       .  A
C1817      H1820   1.085       .  S
C1817      C1818   1.394       .  A
C1818      C1821   1.446       .  S
C1821      N1823   1.157       .  T
C1822      N1824   1.157       .  T
C1825      C1826   1.404       .  A
C1825      C1830   1.407       .  A
C1826      H1831   1.085       .  S
C1826      C1827   1.401       .  A
C1827      C1828   1.412       .  A
C1827      C1834   1.444       .  S
C1828      C1829   1.407       .  A
C1829      H1832   1.085       .  S
C1829      C1830   1.397       .  A
C1830      C1833   1.445       .  S
C1833      N1835   1.157       .  T
C1834      N1836   1.157       .  T
C1837      C1838   1.403       .  A
C1837      C1842   1.409       .  A
C1838      H1843   1.085       .  S
C1838      C1839   1.399       .  A
C1839      C1840   1.410       .  A
C1839      C1846   1.444       .  S
C1840      C1841   1.404       .  A
C1841      H1844   1.085       .  S
C1841      C1842   1.401       .  A
C1842      C1845   1.444       .  S
C1845      N1847   1.157       .  T
C1846      N1848   1.157       .  T
C1849      C1850   1.405       .  A
C1849      C1854   1.413       .  A
C1850      H1855   1.085       .  S
C1850      C1851   1.405       .  A
C1851      C1852   1.410       .  A
C1851      C1858   1.443       .  S
C1852      C1853   1.401       .  A
C1853      H1856   1.085       .  S
C1853      C1854   1.400       .  A
C1854      C1857   1.444       .  S
C1857      N1859   1.157       .  T
C1858      N1860   1.157       .  T
C1861      C1862   1.402       .  A
C1861      C1866   1.412       .  A
C1862      H1867   1.085       .  S
C1862      C1863   1.399       .  A
C1863      C1864   1.412       .  A
C1863      C1870   1.444       .  S
C1864      C1865   1.402       .  A
C1865      H1868   1.085       .  S
C1865      C1866   1.400       .  A
C1866      C1869   1.444       .  S
C1869      N1871   1.157       .  T
C1870      N1872   1.157       .  T
C1873      C1874   1.408       .  A
C1873      C1878   1.419       .  A
C1874      H1879   1.082       .  S
C1874      C1875   1.403       .  A
C1875      C1876   1.425       .  A
C1875      C1882   1.443       .  S
C1876      C1877   1.414       .  A
C1877      H1880   1.080       .  S
C1877      C1878   1.403       .  A
C1878      C1881   1.445       .  S
C1881      N1883   1.158       .  T
C1882      N1884   1.157       .  T
C1885      C1886   1.401   1_655  A
C1885      C1890   1.410       .  A
C1886      H1891   1.085       .  S
C1886      C1887   1.403       .  A
C1887      C1888   1.421       .  A
C1887      C1894   1.444       .  S
C1888      C1889   1.408   1_455  A
C1889      H1892   1.084       .  S
C1889      C1890   1.396       .  A
C1890      C1893   1.445       .  S
C1893      N1895   1.157       .  T
C1894      N1896   1.157       .  T
C1897      C1898   1.400       .  A
C1897      C1902   1.407       .  A
C1898      H1903   1.086       .  S
C1898      C1899   1.396       .  A
C1899      C1900   1.421       .  A
C1899      C1906   1.445       .  S
C1900      C1901   1.411       .  A
C1901      H1904   1.084       .  S
C1901      C1902   1.402       .  A
C1902      C1905   1.444       .  S
C1905      N1907   1.157       .  T
C1906      N1908   1.158       .  T
C1909      C1910   1.407       .  A
C1909      C1914   1.415       .  A
C1910      H1915   1.085       .  S
C1910      C1911   1.404       .  A
C1911      C1912   1.411       .  A
C1911      C1918   1.444       .  S
C1912      C1913   1.403       .  A
C1913      H1916   1.085       .  S
C1913      C1914   1.400       .  A
C1914      C1917   1.445       .  S
C1917      N1919   1.157       .  T
C1918      N1920   1.157       .  T
C1921      C1922   1.401       .  A
C1921      C1926   1.414       .  A
C1922      H1927   1.085       .  S
C1922      C1923   1.402       .  A
C1923      C1924   1.415       .  A
C1923      C1930   1.444       .  S
C1924      C1925   1.401       .  A
C1925      H1928   1.085       .  S
C1925      C1926   1.398       .  A
C1926      C1929   1.445       .  S
C1929      N1931   1.157       .  T
C1930      N1932   1.157       .  T
C1933      C1934   1.398       .  A
C1933      C1938   1.405       .  A
C1934      H1939   1.085       .  S
C1934      C1935   1.393       .  A
C1935      C1936   1.421       .  A
C1935      C1942   1.446       .  S
C1936      C1937   1.412       .  A
C1937      H1940   1.084       .  S
C1937      C1938   1.405       .  A
C1938      C1941   1.443       .  S
C1941      N1943   1.157       .  T
C1942      N1944   1.158       .  T
C1945      C1946   1.408       .  A
C1945      C1950   1.419       .  A
C1946      H1951   1.085       .  S
C1946      C1947   1.402       .  A
C1947      C1948   1.410       .  A
C1947      C1954   1.444       .  S
C1948      C1949   1.401       .  A
C1949      H1952   1.085       .  S
C1949      C1950   1.403       .  A
C1950      C1953   1.443       .  S
C1953      N1955   1.157       .  T
C1954      N1956   1.157       .  T
C1957      C1958   1.404       .  A
C1957      C1962   1.410       .  A
C1958      H1963   1.085       .  S
C1958      C1959   1.403       .  A
C1959      C1960   1.410       .  A
C1959      C1966   1.444       .  S
C1960      C1961   1.403       .  A
C1961      H1964   1.085       .  S
C1961      C1962   1.402       .  A
C1962      C1965   1.444       .  S
C1965      N1967   1.157   1_655  T
C1966      N1968   1.157       .  T
C1969      C1970   1.403       .  A
C1969      C1974   1.410       .  A
C1970      H1975   1.085       .  S
C1970      C1971   1.403       .  A
C1971      C1972   1.415       .  A
C1971      C1978   1.444       .  S
C1972      C1973   1.405       .  A
C1973      H1976   1.085       .  S
C1973      C1974   1.400       .  A
C1974      C1977   1.444       .  S
C1977      N1979   1.157       .  T
C1978      N1980   1.157   1_545  T
C1981      C1982   1.397   1_556  A
C1981      C1986   1.408       .  A
C1982      H1987   1.086       .  S
C1982      C1983   1.397       .  A
C1983      C1984   1.422       .  A
C1983      C1990   1.445       .  S
C1984      C1985   1.408   1_554  A
C1985      H1988   1.084       .  S
C1985      C1986   1.403       .  A
C1986      C1989   1.444       .  S
C1989      N1991   1.157       .  T
C1990      N1992   1.157       .  T
C1993      C1994   1.406       .  A
C1993      C1998   1.418   1_455  A
C1994      H1999   1.085       .  S
C1994      C1995   1.393       .  A
C1995      C1996   1.411       .  A
C1995      C2002   1.446       .  S
C1996      C1997   1.402   1_455  A
C1997      H2000   1.085       .  S
C1997      C1998   1.403       .  A
C1998      C2001   1.444       .  S
C2001      N2003   1.157       .  T
C2002      N2004   1.157       .  T
C2005      C2006   1.409   1_455  A
C2005      C2010   1.411       .  A
C2006      H2011   1.085       .  S
C2006      C2007   1.396       .  A
C2007      C2008   1.406       .  A
C2007      C2014   1.445       .  S
C2008      C2009   1.405   1_655  A
C2009      H2012   1.085       .  S
C2009      C2010   1.403       .  A
C2010      C2013   1.442       .  S
C2013      N2015   1.157       .  T
C2014      N2016   1.157       .  T
C2017      C2018   1.407       .  A
C2017      C2022   1.420   1_556  A
C2018      H2023   1.085       .  S
C2018      C2019   1.395       .  A
C2019      C2020   1.407   1_556  A
C2019      C2026   1.445       .  S
C2020      C2021   1.400       .  A
C2021      H2024   1.085       .  S
C2021      C2022   1.403       .  A
C2022      C2025   1.444       .  S
C2025      N2027   1.158       .  T
C2026      N2028   1.157       .  T
C2029      C2030   1.400       .  A
C2029      C2034   1.411       .  A
C2030      H2035   1.085       .  S
C2030      C2031   1.399       .  A
C2031      C2032   1.414       .  A
C2031      C2038   1.445       .  S
C2032      C2033   1.402       .  A
C2033      H2036   1.085       .  S
C2033      C2034   1.398       .  A
C2034      C2037   1.445       .  S
C2037      N2039   1.157       .  T
C2038      N2040   1.157       .  T
C2041      C2042   1.405       .  A
C2041      C2046   1.410       .  A
C2042      H2047   1.085       .  S
C2042      C2043   1.400       .  A
C2043      C2044   1.409       .  A
C2043      C2050   1.444       .  S
C2044      C2045   1.405       .  A
C2045      H2048   1.085       .  S
C2045      C2046   1.398       .  A
C2046      C2049   1.445       .  S
C2049      N2051   1.157       .  T
C2050      N2052   1.157       .  T
C2053      C2054   1.405       .  A
C2053      C2058   1.413       .  A
C2054      H2059   1.085       .  S
C2054      C2055   1.402       .  A
C2055      C2056   1.409       .  A
C2055      C2062   1.444       .  S
C2056      C2057   1.401       .  A
C2057      H2060   1.085       .  S
C2057      C2058   1.401       .  A
C2058      C2061   1.444       .  S
C2061      N2063   1.157       .  T
C2062      N2064   1.157       .  T
C2065      C2066   1.402       .  A
C2065      C2070   1.409       .  A
C2066      H2071   1.085       .  S
C2066      C2067   1.403       .  A
C2067      C2068   1.415       .  A
C2067      C2074   1.444       .  S
C2068      C2069   1.406       .  A
C2069      H2072   1.085       .  S
C2069      C2070   1.401       .  A
C2070      C2073   1.444       .  S
C2073      N2075   1.157       .  T
C2074      N2076   1.157       .  T
C2077      C2078   1.403       .  A
C2077      C2082   1.411       .  A
C2078      H2083   1.086       .  S
C2078      C2079   1.393       .  A
C2079      C2080   1.416       .  A
C2079      C2086   1.445       .  S
C2080      C2081   1.409       .  A
C2081      H2084   1.085       .  S
C2081      C2082   1.405       .  A
C2082      C2085   1.443       .  S
C2085      N2087   1.157       .  T
C2086      N2088   1.157       .  T
C2089      C2090   1.401       .  A
C2089      C2094   1.409       .  A
C2090      H2095   1.085       .  S
C2090      C2091   1.401       .  A
C2091      C2092   1.414       .  A
C2091      C2098   1.444       .  S
C2092      C2093   1.406       .  A
C2093      H2096   1.085       .  S
C2093      C2094   1.402       .  A
C2094      C2097   1.444       .  S
C2097      N2099   1.157       .  T
C2098      N2100   1.157       .  T
C2101      C2102   1.403       .  A
C2101      C2106   1.412       .  A
C2102      H2107   1.085       .  S
C2102      C2103   1.406       .  A
C2103      C2104   1.419       .  A
C2103      C2110   1.444       .  S
C2104      C2105   1.406       .  A
C2105      H2108   1.085       .  S
C2105      C2106   1.394       .  A
C2106      C2109   1.446       .  S
C2109      N2111   1.157       .  T
C2110      N2112   1.157       .  T
C2113      C2114   1.406       .  A
C2113      C2118   1.415       .  A
C2114      H2119   1.085       .  S
C2114      C2115   1.400       .  A
C2115      C2116   1.408       .  A
C2115      C2122   1.444       .  S
C2116      C2117   1.402       .  A
C2117      H2120   1.085       .  S
C2117      C2118   1.401       .  A
C2118      C2121   1.444       .  S
C2121      N2123   1.157       .  T
C2122      N2124   1.157       .  T
C2125      C2126   1.405       .  A
C2125      C2130   1.413       .  A
C2126      H2131   1.085       .  S
C2126      C2127   1.402       .  A
C2127      C2128   1.410       .  A
C2127      C2134   1.444       .  S
C2128      C2129   1.402       .  A
C2129      H2132   1.085       .  S
C2129      C2130   1.403       .  A
C2130      C2133   1.444       .  S
C2133      N2135   1.157       .  T
C2134      N2136   1.157       .  T
C2137      C2138   1.406       .  A
C2137      C2142   1.415       .  A
C2138      H2143   1.085       .  S
C2138      C2139   1.402       .  A
C2139      C2140   1.410       .  A
C2139      C2146   1.443       .  S
C2140      C2141   1.402       .  A
C2141      H2144   1.085       .  S
C2141      C2142   1.403       .  A
C2142      C2145   1.444       .  S
C2145      N2147   1.157       .  T
C2146      N2148   1.157       .  T
C2149      C2150   1.403       .  A
C2149      C2154   1.413       .  A
C2150      H2155   1.085       .  S
C2150      C2151   1.404       .  A
C2151      C2152   1.418       .  A
C2151      C2158   1.444       .  S
C2152      C2153   1.404       .  A
C2153      H2156   1.084       .  S
C2153      C2154   1.395       .  A
C2154      C2157   1.446       .  S
C2157      N2159   1.157       .  T
C2158      N2160   1.157       .  T
C2161      C2162   1.408       .  A
C2161      C2166   1.417       .  A
C2162      H2167   1.085       .  S
C2162      C2163   1.401       .  A
C2163      C2164   1.411       .  A
C2163      C2170   1.445       .  S
C2164      C2165   1.404       .  A
C2165      H2168   1.085       .  S
C2165      C2166   1.404       .  A
C2166      C2169   1.444   1_556  S
C2169      N2171   1.157       .  T
C2170      N2172   1.157       .  T
C2173      C2174   1.407       .  A
C2173      C2178   1.415   1_545  A
C2174      H2179   1.085       .  S
C2174      C2175   1.399       .  A
C2175      C2176   1.407   1_545  A
C2175      C2182   1.444       .  S
C2176      C2177   1.402       .  A
C2177      H2180   1.085       .  S
C2177      C2178   1.401       .  A
C2178      C2181   1.444       .  S
C2181      N2183   1.157       .  T
C2182      N2184   1.157       .  T
C2185      C2186   1.406   1_545  A
C2185      C2190   1.419       .  A
C2186      H2191   1.085       .  S
C2186      C2187   1.398       .  A
C2187      C2188   1.410       .  A
C2187      C2194   1.445       .  S
C2188      C2189   1.400   1_565  A
C2189      H2192   1.085       .  S
C2189      C2190   1.401       .  A
C2190      C2193   1.444       .  S
C2193      N2195   1.157       .  T
C2194      N2196   1.157       .  T
C2197      C2198   1.408   1_556  A
C2197      C2202   1.417       .  A
C2198      H2203   1.085       .  S
C2198      C2199   1.398       .  A
C2199      C2200   1.408   1_554  A
C2199      C2206   1.445       .  S
C2200      C2201   1.401       .  A
C2201      H2204   1.085       .  S
C2201      C2202   1.401       .  A
C2202      C2205   1.444       .  S
C2205      N2207   1.157       .  T
C2206      N2208   1.157       .  T
C2209      C2210   1.401       .  A
C2209      C2214   1.409   1_554  A
C2210      H2215   1.085       .  S
C2210      C2211   1.402       .  A
C2211      C2212   1.418       .  A
C2211      C2218   1.444       .  S
C2212      C2213   1.407   1_554  A
C2213      H2216   1.085       .  S
C2213      C2214   1.397       .  A
C2214      C2217   1.445       .  S
C2217      N2219   1.157       .  T
C2218      N2220   1.157       .  T
C2221      C2222   1.406       .  A
C2221      C2226   1.412       .  A
C2222      H2227   1.085       .  S
C2222      C2223   1.401       .  A
C2223      C2224   1.409       .  A
C2223      C2230   1.444       .  S
C2224      C2225   1.401       .  A
C2225      H2228   1.085       .  S
C2225      C2226   1.400       .  A
C2226      C2229   1.442       .  S
C2229      N2231   1.157       .  T
C2230      N2232   1.157       .  T
C2233      C2234   1.401       .  A
C2233      C2238   1.411       .  A
C2234      H2239   1.085       .  S
C2234      C2235   1.401       .  A
C2235      C2236   1.413       .  A
C2235      C2242   1.444       .  S
C2236      C2237   1.401       .  A
C2237      H2240   1.085       .  S
C2237      C2238   1.399       .  A
C2238      C2241   1.444       .  S
C2241      N2243   1.157       .  T
C2242      N2244   1.157       .  T
C2245      C2246   1.409       .  A
C2245      C2250   1.419       .  A
C2246      H2251   1.084       .  S
C2246      C2247   1.402       .  A
C2247      C2248   1.409       .  A
C2247      C2254   1.443       .  S
C2248      C2249   1.402       .  A
C2249      H2252   1.085       .  S
C2249      C2250   1.403       .  A
C2250      C2253   1.444       .  S
C2253      N2255   1.157       .  T
C2254      N2256   1.157       .  T
C2257      C2258   1.408       .  A
C2257      C2262   1.419       .  A
C2258      H2263   1.084       .  S
C2258      C2259   1.403       .  A
C2259      C2260   1.411       .  A
C2259      C2266   1.444       .  S
C2260      C2261   1.402       .  A
C2261      H2264   1.085       .  S
C2261      C2262   1.402       .  A
C2262      C2265   1.444       .  S
C2265      N2267   1.157       .  T
C2266      N2268   1.157       .  T
C2269      C2270   1.405       .  A
C2269      C2274   1.418       .  A
C2270      H2275   1.085       .  S
C2270      C2271   1.394       .  A
C2271      C2272   1.413       .  A
C2271      C2278   1.446       .  S
C2272      C2273   1.403       .  A
C2273      H2276   1.085       .  S
C2273      C2274   1.404       .  A
C2274      C2277   1.444       .  S
C2277      N2279   1.157       .  T
C2278      N2280   1.157       .  T
C2281      C2282   1.407   1_565  A
C2281      C2286   1.415       .  A
C2282      H2287   1.085       .  S
C2282      C2283   1.398       .  A
C2283      C2284   1.407   1_545  A
C2283      C2290   1.444       .  S
C2284      C2285   1.402       .  A
C2285      H2288   1.085       .  S
C2285      C2286   1.401       .  A
C2286      C2289   1.444       .  S
C2289      N2291   1.157       .  T
C2290      N2292   1.157       .  T
C2293      C2294   1.401       .  A
C2293      C2298   1.409       .  A
C2294      H2299   1.085       .  S
C2294      C2295   1.401       .  A
C2295      C2296   1.414       .  A
C2295      C2302   1.443       .  S
C2296      C2297   1.406       .  A
C2297      H2300   1.085       .  S
C2297      C2298   1.402       .  A
C2298      C2301   1.444       .  S
C2301      N2303   1.157       .  T
C2302      N2304   1.157       .  T
C2305      C2306   1.405       .  A
C2305      C2310   1.410       .  A
C2306      H2311   1.086       .  S
C2306      C2307   1.391       .  A
C2307      C2308   1.415       .  A
C2307      C2314   1.446       .  S
C2308      C2309   1.411       .  A
C2309      H2312   1.084       .  S
C2309      C2310   1.408       .  A
C2310      C2313   1.443       .  S
C2313      N2315   1.157       .  T
C2314      N2316   1.157       .  T
C2317      C2318   1.400       .  A
C2317      C2322   1.409       .  A
C2318      H2323   1.085       .  S
C2318      C2319   1.399       .  A
C2319      C2320   1.412       .  A
C2319      C2326   1.445       .  S
C2320      C2321   1.402       .  A
C2321      H2324   1.085       .  S
C2321      C2322   1.399       .  A
C2322      C2325   1.444       .  S
C2325      N2327   1.157       .  T
C2326      N2328   1.157       .  T
C2329      C2330   1.401       .  A
C2329      C2334   1.410       .  A
C2330      H2335   1.085       .  S
C2330      C2331   1.401       .  A
C2331      C2332   1.417       .  A
C2331      C2338   1.445       .  S
C2332      C2333   1.407       .  A
C2333      H2336   1.085       .  S
C2333      C2334   1.404       .  A
C2334      C2337   1.443       .  S
C2337      N2339   1.157       .  T
C2338      N2340   1.157       .  T
C2341      C2342   1.417       .  A
C2341      C2346   1.426       .  A
C2342      H2347   1.082       .  S
C2342      C2343   1.406       .  A
C2343      C2344   1.417       .  A
C2343      C2350   1.444       .  S
C2344      C2345   1.407       .  A
C2345      H2348   1.084       .  S
C2345      C2346   1.400       .  A
C2346      C2349   1.443       .  S
C2349      N2351   1.157       .  T
C2350      N2352   1.158       .  T
C2353      C2354   1.405   1_545  A
C2353      C2358   1.411       .  A
C2354      H2359   1.085       .  S
C2354      C2355   1.400       .  A
C2355      C2356   1.407   1_565  A
C2355      C2362   1.444       .  S
C2356      C2357   1.403       .  A
C2357      H2360   1.085       .  S
C2357      C2358   1.400       .  A
C2358      C2361   1.444       .  S
C2361      N2363   1.157       .  T
C2362      N2364   1.157       .  T
C2365      C2366   1.400       .  A
C2365      C2370   1.411       .  A
C2366      H2371   1.085       .  S
C2366      C2367   1.399       .  A
C2367      C2368   1.414       .  A
C2367      C2374   1.444       .  S
C2368      C2369   1.406       .  A
C2369      H2372   1.085       .  S
C2369      C2370   1.405       .  A
C2370      C2373   1.443       .  S
C2373      N2375   1.157       .  T
C2374      N2376   1.157       .  T
C2377      C2378   1.402       .  A
C2377      C2382   1.411   1_565  A
C2378      H2383   1.086       .  S
C2378      C2379   1.397       .  A
C2379      C2380   1.421       .  A
C2379      C2386   1.445       .  S
C2380      C2381   1.410   1_565  A
C2381      H2384   1.084       .  S
C2381      C2382   1.404       .  A
C2382      C2385   1.443       .  S
C2385      N2387   1.157       .  T
C2386      N2388   1.157       .  T
C2389      C2390   1.404   1_455  A
C2389      C2394   1.417       .  A
C2390      H2395   1.085       .  S
C2390      C2391   1.396       .  A
C2391      C2392   1.410   1_655  A
C2391      C2398   1.445       .  S
C2392      C2393   1.400       .  A
C2393      H2396   1.085       .  S
C2393      C2394   1.402       .  A
C2394      C2397   1.444       .  S
C2397      N2399   1.157       .  T
C2398      N2400   1.157       .  T
C2401      C2402   1.409   1_554  A
C2401      C2406   1.411       .  A
C2402      H2407   1.085       .  S
C2402      C2403   1.394       .  A
C2403      C2404   1.404   1_556  A
C2403      C2410   1.445       .  S
C2404      C2405   1.405       .  A
C2405      H2408   1.085       .  S
C2405      C2406   1.406       .  A
C2406      C2409   1.443       .  S
C2409      N2411   1.157       .  T
C2410      N2412   1.157       .  T
C2413      C2414   1.401   1_565  A
C2413      C2418   1.408       .  A
C2414      H2419   1.086       .  S
C2414      C2415   1.398       .  A
C2415      C2416   1.419   1_545  A
C2415      C2422   1.444       .  S
C2416      C2417   1.410       .  A
C2417      H2420   1.084       .  S
C2417      C2418   1.403       .  A
C2418      C2421   1.444       .  S
C2421      N2423   1.157       .  T
C2422      N2424   1.157       .  T
C2425      C2426   1.404       .  A
C2425      C2430   1.419   1_655  A
C2426      H2431   1.085       .  S
C2426      C2427   1.403       .  A
C2427      C2428   1.410       .  A
C2427      C2434   1.444       .  S
C2428      C2429   1.396   1_655  A
C2429      H2432   1.085       .  S
C2429      C2430   1.397       .  A
C2430      C2433   1.445       .  S
C2433      N2435   1.157       .  T
C2434      N2436   1.157       .  T
C2437      C2438   1.403       .  A
C2437      C2442   1.404   1_556  A
C2438      H2443   1.085       .  S
C2438      C2439   1.404       .  A
C2439      C2440   1.413       .  A
C2439      C2446   1.442       .  S
C2440      C2441   1.409   1_556  A
C2441      H2444   1.085       .  S
C2441      C2442   1.394       .  A
C2442      C2445   1.445       .  S
C2445      N2447   1.157       .  T
C2446      N2448   1.157       .  T
C2449      C2450   1.403       .  A
C2449      C2454   1.415       .  A
C2450      H2455   1.085       .  S
C2450      C2451   1.402       .  A
C2451      C2452   1.410       .  A
C2451      C2458   1.444       .  S
C2452      C2453   1.398       .  A
C2453      H2456   1.085       .  S
C2453      C2454   1.398       .  A
C2454      C2457   1.445       .  S
C2457      N2459   1.157       .  T
C2458      N2460   1.157       .  T
C2461      C2462   1.404       .  A
C2461      C2466   1.405       .  A
C2462      H2467   1.085       .  S
C2462      C2463   1.403       .  A
C2463      C2464   1.411       .  A
C2463      C2470   1.443       .  S
C2464      C2465   1.406       .  A
C2465      H2468   1.085       .  S
C2465      C2466   1.394       .  A
C2466      C2469   1.444       .  S
C2469      N2471   1.157       .  T
C2470      N2472   1.157       .  T
C2473      C2474   1.410       .  A
C2473      C2478   1.419       .  A
C2474      H2479   1.084       .  S
C2474      C2475   1.402       .  A
C2475      C2476   1.408       .  A
C2475      C2482   1.444       .  S
C2476      C2477   1.401       .  A
C2477      H2480   1.085       .  S
C2477      C2478   1.396       .  A
C2478      C2481   1.445       .  S
C2481      N2483   1.158       .  T
C2482      N2484   1.157       .  T
C2485      C2486   1.402       .  A
C2485      C2490   1.404       .  A
C2486      H2491   1.085       .  S
C2486      C2487   1.403       .  A
C2487      C2488   1.415       .  A
C2487      C2494   1.444       .  S
C2488      C2489   1.409       .  A
C2489      H2492   1.085       .  S
C2489      C2490   1.396       .  A
C2490      C2493   1.444       .  S
C2493      N2495   1.157       .  T
C2494      N2496   1.157       .  T
C2497      C2498   1.406       .  A
C2497      C2502   1.418       .  A
C2498      H2503   1.085       .  S
C2498      C2499   1.401       .  A
C2499      C2500   1.409       .  A
C2499      C2506   1.444       .  S
C2500      C2501   1.400       .  A
C2501      H2504   1.085       .  S
C2501      C2502   1.400       .  A
C2502      C2505   1.445       .  S
C2505      N2507   1.158       .  T
C2506      N2508   1.157       .  T
C2509      C2510   1.401       .  A
C2509      C2514   1.410       .  A
C2510      H2515   1.086       .  S
C2510      C2511   1.393       .  A
C2511      C2512   1.419       .  A
C2511      C2518   1.442       .  S
C2512      C2513   1.411       .  A
C2513      H2516   1.084       .  S
C2513      C2514   1.405       .  A
C2514      C2517   1.443       .  S
C2517      N2519   1.157       .  T
C2518      N2520   1.156       .  T
C2521      C2522   1.398   1_554  A
C2521      C2526   1.410       .  A
C2522      H2527   1.085       .  S
C2522      C2523   1.398       .  A
C2523      C2524   1.415   1_556  A
C2523      C2530   1.445       .  S
C2524      C2525   1.403       .  A
C2525      H2528   1.085       .  S
C2525      C2526   1.402       .  A
C2526      C2529   1.444       .  S
C2529      N2531   1.157       .  T
C2530      N2532   1.157       .  T
C2533      C2534   1.406       .  A
C2533      C2538   1.421       .  A
C2534      H2539   1.085       .  S
C2534      C2535   1.394       .  A
C2535      C2536   1.413       .  A
C2535      C2542   1.446       .  S
C2536      C2537   1.402       .  A
C2537      H2540   1.085       .  S
C2537      C2538   1.404       .  A
C2538      C2541   1.444       .  S
C2541      N2543   1.157       .  T
C2542      N2544   1.157       .  T
C2545      C2546   1.401       .  A
C2545      C2550   1.409   1_556  A
C2546      H2551   1.085       .  S
C2546      C2547   1.403       .  A
C2547      C2548   1.419       .  A
C2547      C2554   1.444       .  S
C2548      C2549   1.408   1_556  A
C2549      H2552   1.085       .  S
C2549      C2550   1.397       .  A
C2550      C2553   1.445       .  S
C2553      N2555   1.157       .  T
C2554      N2556   1.157       .  T
C2557      C2558   1.406       .  A
C2557      C2562   1.416       .  A
C2558      H2563   1.085       .  S
C2558      C2559   1.402       .  A
C2559      C2560   1.409       .  A
C2559      C2566   1.444       .  S
C2560      C2561   1.399       .  A
C2561      H2564   1.085       .  S
C2561      C2562   1.398       .  A
C2562      C2565   1.445       .  S
C2565      N2567   1.157       .  T
C2566      N2568   1.157       .  T
C2569      C2570   1.407       .  A
C2569      C2574   1.419       .  A
C2570      H2575   1.084       .  S
C2570      C2571   1.401       .  A
C2571      C2572   1.408       .  A
C2571      C2578   1.444       .  S
C2572      C2573   1.398       .  A
C2573      H2576   1.085       .  S
C2573      C2574   1.399       .  A
C2574      C2577   1.445       .  S
C2577      N2579   1.157       .  T
C2578      N2580   1.157       .  T
C2581      C2582   1.402       .  A
C2581      C2586   1.411       .  A
C2582      H2587   1.085       .  S
C2582      C2583   1.404       .  A
C2583      C2584   1.420       .  A
C2583      C2590   1.444       .  S
C2584      C2585   1.407       .  A
C2585      H2588   1.084       .  S
C2585      C2586   1.396       .  A
C2586      C2589   1.446       .  S
C2589      N2591   1.157       .  T
C2590      N2592   1.157       .  T
C2593      C2594   1.402       .  A
C2593      C2598   1.411       .  A
C2594      H2599   1.085       .  S
C2594      C2595   1.403       .  A
C2595      C2596   1.417       .  A
C2595      C2602   1.444       .  S
C2596      C2597   1.408       .  A
C2597      H2600   1.084       .  S
C2597      C2598   1.404       .  A
C2598      C2601   1.444       .  S
C2601      N2603   1.157       .  T
C2602      N2604   1.157       .  T
C2605      C2606   1.409       .  A
C2605      C2610   1.418       .  A
C2606      H2611   1.085       .  S
C2606      C2607   1.402       .  A
C2607      C2608   1.410       .  A
C2607      C2614   1.444       .  S
C2608      C2609   1.403       .  A
C2609      H2612   1.085       .  S
C2609      C2610   1.405       .  A
C2610      C2613   1.444       .  S
C2613      N2615   1.157       .  T
C2614      N2616   1.157       .  T
C2617      C2618   1.402       .  A
C2617      C2622   1.410       .  A
C2618      H2623   1.085       .  S
C2618      C2619   1.403       .  A
C2619      C2620   1.413       .  A
C2619      C2626   1.444       .  S
C2620      C2621   1.405       .  A
C2621      H2624   1.085       .  S
C2621      C2622   1.403       .  A
C2622      C2625   1.444       .  S
C2625      N2627   1.157       .  T
C2626      N2628   1.157       .  T
C2629      C2630   1.400       .  A
C2629      C2634   1.405   1_545  A
C2630      H2635   1.085       .  S
C2630      C2631   1.403       .  A
C2631      C2632   1.420   1_545  A
C2631      C2638   1.444       .  S
C2632      C2633   1.410       .  A
C2633      H2636   1.084       .  S
C2633      C2634   1.395       .  A
C2634      C2637   1.445       .  S
C2637      N2639   1.157       .  T
C2638      N2640   1.158       .  T
C2641      C2642   1.400       .  A
C2641      C2646   1.412       .  A
C2642      H2647   1.085       .  S
C2642      C2643   1.399       .  A
C2643      C2644   1.416       .  A
C2643      C2650   1.445       .  S
C2644      C2645   1.402       .  A
C2645      H2648   1.085       .  S
C2645      C2646   1.401       .  A
C2646      C2649   1.444       .  S
C2649      N2651   1.157       .  T
C2650      N2652   1.157       .  T
C2653      C2654   1.407       .  A
C2653      C2658   1.419       .  A
C2654      H2659   1.084       .  S
C2654      C2655   1.395       .  A
C2655      C2656   1.412       .  A
C2655      C2662   1.446       .  S
C2656      C2657   1.404       .  A
C2657      H2660   1.085       .  S
C2657      C2658   1.407       .  A
C2658      C2661   1.444       .  S
C2661      N2663   1.157       .  T
C2662      N2664   1.157       .  T
C2665      C2666   1.403       .  A
C2665      C2670   1.417       .  A
C2666      H2671   1.084       .  S
C2666      C2667   1.404       .  A
C2667      C2668   1.413       .  A
C2667      C2674   1.444       .  S
C2668      C2669   1.399       .  A
C2669      H2672   1.085       .  S
C2669      C2670   1.398       .  A
C2670      C2673   1.445       .  S
C2673      N2675   1.157       .  T
C2674      N2676   1.157       .  T
C2677      C2678   1.410       .  A
C2677      C2682   1.416   1_545  A
C2678      H2683   1.085       .  S
C2678      C2679   1.398       .  A
C2679      C2680   1.404       .  A
C2679      C2686   1.444       .  S
C2680      C2681   1.401   1_545  A
C2681      H2684   1.086       .  S
C2681      C2682   1.400       .  A
C2682      C2685   1.443       .  S
C2685      N2687   1.157       .  T
C2686      N2688   1.157       .  T
C2689      C2690   1.406       .  A
C2689      C2694   1.410       .  A
C2690      H2695   1.085       .  S
C2690      C2691   1.396       .  A
C2691      C2692   1.407       .  A
C2691      C2698   1.444       .  S
C2692      C2693   1.405       .  A
C2693      H2696   1.085       .  S
C2693      C2694   1.402       .  A
C2694      C2697   1.444       .  S
C2697      N2699   1.157       .  T
C2698      N2700   1.157       .  T
C2701      C2702   1.406       .  A
C2701      C2706   1.420   1_655  A
C2702      H2707   1.085       .  S
C2702      C2703   1.392       .  A
C2703      C2704   1.412       .  A
C2703      C2710   1.447       .  S
C2704      C2705   1.402   1_655  A
C2705      H2708   1.084       .  S
C2705      C2706   1.406       .  A
C2706      C2709   1.444       .  S
C2709      N2711   1.158       .  T
C2710      N2712   1.157       .  T
C2713      C2714   1.407       .  A
C2713      C2718   1.421       .  A
C2714      H2719   1.085       .  S
C2714      C2715   1.394       .  A
C2715      C2716   1.410       .  A
C2715      C2722   1.446       .  S
C2716      C2717   1.401       .  A
C2717      H2720   1.085       .  S
C2717      C2718   1.406       .  A
C2718      C2721   1.444       .  S
C2721      N2723   1.158       .  T
C2722      N2724   1.157       .  T
C2725      C2726   1.399       .  A
C2725      C2730   1.411   1_455  A
C2726      H2731   1.085       .  S
C2726      C2727   1.397       .  A
C2727      C2728   1.416       .  A
C2727      C2734   1.445       .  S
C2728      C2729   1.403   1_455  A
C2729      H2732   1.085       .  S
C2729      C2730   1.401       .  A
C2730      C2733   1.444       .  S
C2733      N2735   1.157       .  T
C2734      N2736   1.157       .  T
C2737      C2738   1.397       .  A
C2737      C2742   1.406       .  A
C2738      H2743   1.086       .  S
C2738      C2739   1.394       .  A
C2739      C2740   1.422       .  A
C2739      C2746   1.446       .  S
C2740      C2741   1.411       .  A
C2741      H2744   1.084       .  S
C2741      C2742   1.403       .  A
C2742      C2745   1.444       .  S
C2745      N2747   1.157       .  T
C2746      N2748   1.158       .  T
C2749      C2750   1.397       .  A
C2749      C2754   1.406       .  A
C2750      H2755   1.086       .  S
C2750      C2751   1.395       .  A
C2751      C2752   1.421       .  A
C2751      C2758   1.443       .  S
C2752      C2753   1.412       .  A
C2753      H2756   1.084       .  S
C2753      C2754   1.404       .  A
C2754      C2757   1.443       .  S
C2757      N2759   1.157       .  T
C2758      N2760   1.156       .  T
C2761      C2762   1.407       .  A
C2761      C2766   1.419       .  A
C2762      H2767   1.085       .  S
C2762      C2763   1.397       .  A
C2763      C2764   1.409       .  A
C2763      C2770   1.445       .  S
C2764      C2765   1.401       .  A
C2765      H2768   1.085       .  S
C2765      C2766   1.402       .  A
C2766      C2769   1.444       .  S
C2769      N2771   1.158       .  T
C2770      N2772   1.157       .  T
C2773      C2774   1.406       .  A
C2773      C2778   1.415       .  A
C2774      H2779   1.085       .  S
C2774      C2775   1.402       .  A
C2775      C2776   1.410       .  A
C2775      C2782   1.444       .  S
C2776      C2777   1.402       .  A
C2777      H2780   1.085       .  S
C2777      C2778   1.402       .  A
C2778      C2781   1.444       .  S
C2781      N2783   1.157       .  T
C2782      N2784   1.157       .  T
C2785      C2786   1.398       .  A
C2785      C2790   1.406       .  A
C2786      H2791   1.086       .  S
C2786      C2787   1.395       .  A
C2787      C2788   1.422       .  A
C2787      C2794   1.445       .  S
C2788      C2789   1.411       .  A
C2789      H2792   1.084       .  S
C2789      C2790   1.403       .  A
C2790      C2793   1.443       .  S
C2793      N2795   1.157       .  T
C2794      N2796   1.158       .  T
C2797      C2798   1.403       .  A
C2797      C2802   1.419       .  A
C2798      H2803   1.084       .  S
C2798      C2799   1.402       .  A
C2799      C2800   1.411       .  A
C2799      C2806   1.444       .  S
C2800      C2801   1.397       .  A
C2801      H2804   1.085       .  S
C2801      C2802   1.397       .  A
C2802      C2805   1.446       .  S
C2805      N2807   1.157       .  T
C2806      N2808   1.157       .  T
C2809      C2810   1.409       .  A
C2809      C2814   1.419       .  A
C2810      H2815   1.084       .  S
C2810      C2811   1.403       .  A
C2811      C2812   1.409       .  A
C2811      C2818   1.444       .  S
C2812      C2813   1.401       .  A
C2813      H2816   1.085       .  S
C2813      C2814   1.402       .  A
C2814      C2817   1.444       .  S
C2817      N2819   1.157       .  T
C2818      N2820   1.157       .  T
C2821      C2822   1.410       .  A
C2821      C2826   1.421       .  A
C2822      H2827   1.084       .  S
C2822      C2823   1.402       .  A
C2823      C2824   1.407       .  A
C2823      C2830   1.444       .  S
C2824      C2825   1.398       .  A
C2825      H2828   1.086       .  S
C2825      C2826   1.398       .  A
C2826      C2829   1.445       .  S
C2829      N2831   1.157       .  T
C2830      N2832   1.157       .  T
C2833      C2834   1.402       .  A
C2833      C2838   1.413       .  A
C2834      H2839   1.085       .  S
C2834      C2835   1.404       .  A
C2835      C2836   1.421       .  A
C2835      C2842   1.444       .  S
C2836      C2837   1.407       .  A
C2837      H2840   1.084       .  S
C2837      C2838   1.396       .  A
C2838      C2841   1.446       .  S
C2841      N2843   1.157       .  T
C2842      N2844   1.157       .  T
C2845      C2846   1.404       .  A
C2845      C2850   1.411       .  A
C2846      H2851   1.085       .  S
C2846      C2847   1.402       .  A
C2847      C2848   1.409       .  A
C2847      C2854   1.444       .  S
C2848      C2849   1.403       .  A
C2849      H2852   1.085       .  S
C2849      C2850   1.403       .  A
C2850      C2853   1.444       .  S
C2853      N2855   1.157       .  T
C2854      N2856   1.157       .  T
C2857      C2858   1.406       .  A
C2857      C2862   1.420       .  A
C2858      H2863   1.085       .  S
C2858      C2859   1.395       .  A
C2859      C2860   1.411       .  A
C2859      C2866   1.446       .  S
C2860      C2861   1.402       .  A
C2861      H2864   1.085       .  S
C2861      C2862   1.405       .  A
C2862      C2865   1.444       .  S
C2865      N2867   1.158       .  T
C2866      N2868   1.157       .  T
C2869      C2870   1.407       .  A
C2869      C2874   1.412       .  A
C2870      H2875   1.085       .  S
C2870      C2871   1.401       .  A
C2871      C2872   1.407       .  A
C2871      C2878   1.444       .  S
C2872      C2873   1.404       .  A
C2873      H2876   1.085       .  S
C2873      C2874   1.398       .  A
C2874      C2877   1.445       .  S
C2877      N2879   1.157       .  T
C2878      N2880   1.157       .  T
C2881      C2882   1.403       .  A
C2881      C2886   1.416       .  A
C2882      H2887   1.085       .  S
C2882      C2883   1.398       .  A
C2883      C2884   1.411       .  A
C2883      C2890   1.444       .  S
C2884      C2885   1.400       .  A
C2885      H2888   1.085       .  S
C2885      C2886   1.400       .  A
C2886      C2889   1.445       .  S
C2889      N2891   1.157       .  T
C2890      N2892   1.157       .  T
C2893      C2894   1.406       .  A
C2893      C2898   1.419       .  A
C2894      H2899   1.085       .  S
C2894      C2895   1.393       .  A
C2895      C2896   1.410       .  A
C2895      C2902   1.446       .  S
C2896      C2897   1.402       .  A
C2897      H2900   1.085       .  S
C2897      C2898   1.404       .  A
C2898      C2901   1.444       .  S
C2901      N2903   1.157       .  T
C2902      N2904   1.157       .  T
C2905      C2906   1.403       .  A
C2905      C2910   1.414       .  A
C2906      H2911   1.085       .  S
C2906      C2907   1.399       .  A
C2907      C2908   1.412       .  A
C2907      C2914   1.444       .  S
C2908      C2909   1.401       .  A
C2909      H2912   1.085       .  S
C2909      C2910   1.400       .  A
C2910      C2913   1.444       .  S
C2913      N2915   1.157       .  T
C2914      N2916   1.157       .  T
C2917      C2918   1.412       .  A
C2917      C2922   1.422       .  A
C2918      H2923   1.084       .  S
C2918      C2919   1.405       .  A
C2919      C2920   1.406       .  A
C2919      C2926   1.443       .  S
C2920      C2921   1.399       .  A
C2921      H2924   1.086       .  S
C2921      C2922   1.394       .  A
C2922      C2925   1.446       .  S
C2925      N2927   1.158       .  T
C2926      N2928   1.157       .  T
C2929      C2930   1.403       .  A
C2929      C2934   1.408       .  A
C2930      H2935   1.085       .  S
C2930      C2931   1.398       .  A
C2931      C2932   1.412       .  A
C2931      C2938   1.444       .  S
C2932      C2933   1.407       .  A
C2933      H2936   1.085       .  S
C2933      C2934   1.401       .  A
C2934      C2937   1.444       .  S
C2937      N2939   1.157       .  T
C2938      N2940   1.157       .  T
C2941      C2942   1.400       .  A
C2941      C2946   1.410       .  A
C2942      H2947   1.085       .  S
C2942      C2943   1.399       .  A
C2943      C2944   1.414       .  A
C2943      C2950   1.444       .  S
C2944      C2945   1.404       .  A
C2945      H2948   1.085       .  S
C2945      C2946   1.398       .  A
C2946      C2949   1.444       .  S
C2949      N2951   1.157       .  T
C2950      N2952   1.157       .  T
C2953      C2954   1.403       .  A
C2953      C2958   1.408       .  A
C2954      H2959   1.085       .  S
C2954      C2955   1.400       .  A
C2955      C2956   1.412       .  A
C2955      C2962   1.442       .  S
C2956      C2957   1.408       .  A
C2957      H2960   1.085       .  S
C2957      C2958   1.400       .  A
C2958      C2961   1.444       .  S
C2961      N2963   1.157       .  T
C2962      N2964   1.157       .  T
C2965      C2966   1.405       .  A
C2965      C2970   1.404       .  A
C2966      H2971   1.085       .  S
C2966      C2967   1.405       .  A
C2967      C2968   1.414       .  A
C2967      C2974   1.443       .  S
C2968      C2969   1.411       .  A
C2969      H2972   1.084       .  S
C2969      C2970   1.397       .  A
C2970      C2973   1.445       .  S
C2973      N2975   1.157       .  T
C2974      N2976   1.157       .  T
C2977      C2978   1.407       .  A
C2977      C2982   1.410       .  A
C2978      H2983   1.085       .  S
C2978      C2979   1.407       .  A
C2979      C2980   1.413       .  A
C2979      C2986   1.441       .  S
C2980      C2981   1.408       .  A
C2981      H2984   1.085       .  S
C2981      C2982   1.391       .  A
C2982      C2985   1.445       .  S
C2985      N2987   1.157       .  T
C2986      N2988   1.157       .  T
C2989      C2990   1.403       .  A
C2989      C2994   1.410       .  A
C2990      H2995   1.086       .  S
C2990      C2991   1.392       .  A
C2991      C2992   1.417       .  A
C2991      C2998   1.447       .  S
C2992      C2993   1.410       .  A
C2993      H2996   1.084       .  S
C2993      C2994   1.408       .  A
C2994      C2997   1.443       .  S
C2997      N2999   1.157       .  T
C2998      N3000   1.158       .  T
C3001      C3002   1.405       .  A
C3001      C3006   1.408       .  A
C3002      H3007   1.085       .  S
C3002      C3003   1.403       .  A
C3003      C3004   1.411       .  A
C3003      C3010   1.444       .  S
C3004      C3005   1.406       .  A
C3005      H3008   1.085       .  S
C3005      C3006   1.395       .  A
C3006      C3009   1.444       .  S
C3009      N3011   1.157       .  T
C3010      N3012   1.157       .  T
C3013      C3014   1.410       .  A
C3013      C3018   1.419       .  A
C3014      H3019   1.084       .  S
C3014      C3015   1.406       .  A
C3015      C3016   1.410       .  A
C3015      C3022   1.443       .  S
C3016      C3017   1.400       .  A
C3017      H3020   1.086       .  S
C3017      C3018   1.394       .  A
C3018      C3021   1.444       .  S
C3021      N3023   1.157       .  T
C3022      N3024   1.157       .  T
C3025      C3026   1.406       .  A
C3025      C3030   1.409       .  A
C3026      H3031   1.085       .  S
C3026      C3027   1.401       .  A
C3027      C3028   1.409       .  A
C3027      C3034   1.443       .  S
C3028      C3029   1.407       .  A
C3029      H3032   1.085       .  S
C3029      C3030   1.399       .  A
C3030      C3033   1.444       .  S
C3033      N3035   1.157       .  T
C3034      N3036   1.157       .  T
C3037      C3038   1.408       .  A
C3037      C3042   1.420       .  A
C3038      H3043   1.084       .  S
C3038      C3039   1.397       .  A
C3039      C3040   1.406       .  A
C3039      C3046   1.445       .  S
C3040      C3041   1.400       .  A
C3041      H3044   1.085       .  S
C3041      C3042   1.402       .  A
C3042      C3045   1.444       .  S
C3045      N3047   1.158       .  T
C3046      N3048   1.157       .  T
C3049      C3050   1.407       .  A
C3049      C3054   1.423       .  A
C3050      H3055   1.084       .  S
C3050      C3051   1.394       .  A
C3051      C3052   1.409       .  A
C3051      C3058   1.446       .  S
C3052      C3053   1.400       .  A
C3053      H3056   1.085       .  S
C3053      C3054   1.405       .  A
C3054      C3057   1.444       .  S
C3057      N3059   1.157       .  T
C3058      N3060   1.157       .  T
C3061      C3062   1.410       .  A
C3061      C3066   1.421       .  A
C3062      H3067   1.084       .  S
C3062      C3063   1.402       .  A
C3063      C3064   1.407       .  A
C3063      C3070   1.444       .  S
C3064      C3065   1.398       .  A
C3065      H3068   1.085       .  S
C3065      C3066   1.398       .  A
C3066      C3069   1.445       .  S
C3069      N3071   1.158       .  T
C3070      N3072   1.157       .  T
