geometry optimzed in LAMMPS
_audit_creation_date              2020-11-30 
_audit_creation_method            'lammps2cif' 
_symmetry_space_group_name_H-M    'P1' 
_symmetry_Int_Tables_number       1 
_symmetry_cell_setting            triclinic 
loop_ 
_symmetry_equiv_pos_as_xyz 
  x,y,z 
_cell_length_a                    34.93812374 
_cell_length_b                    34.78475515230021 
_cell_length_c                    35.3480796429829 
_cell_angle_alpha                 89.78516335782413 
_cell_angle_beta                  89.48910854282505 
_cell_angle_gamma                 89.67712668293086 
loop_ 
_atom_site_label 
_atom_site_type_symbol 
_atom_site_fract_x 
_atom_site_fract_y 
_atom_site_fract_z 
_atom_site_charge 
O1          O  0.29536833  0.66073918  0.79345868    -0.81000
O2          O  0.31619399  0.80815665  0.75474419    -0.81000
O3          O  0.26279195  0.71409330  0.67716193    -0.81000
O4          O  0.26967941  0.77391465  0.83686633    -0.80900
O5          O  0.31277759  0.74707243  0.69659539    -0.81100
O6          O  0.31373578  0.73923303  0.80633681    -0.81000
O7          O  0.26840747  0.83246365  0.78927648    -0.81000
O8          O  0.28033242  0.67483701  0.73384082    -0.81000
C9          C  0.29842739  0.65379904  0.75809995     1.08700
C10         C  0.30361837  0.83162102  0.77983806     1.08600
C11         C  0.29726423  0.72473636  0.67248811     1.08700
C12         C  0.30374089  0.76055791  0.83426796     1.08600
O13         O  0.24226415  0.70943672  0.83137203    -0.81000
O14         O  0.24092406  0.78046655  0.67523270    -0.81000
O15         O  0.20655081  0.66741712  0.71170003    -0.81000
O16         O  0.19576769  0.81222806  0.75874044    -0.81000
O17         O  0.24507928  0.83541764  0.72577769    -0.81000
O18         O  0.22211905  0.67550874  0.77220212    -0.81000
O19         O  0.19533533  0.74845691  0.81392325    -0.80900
O20         O  0.19370666  0.74793264  0.70273884    -0.81000
Co21       Co  0.27112119  0.70927923  0.78268586     1.51500
Co22       Co  0.27896056  0.79012382  0.71592634     1.51700
Co23       Co  0.23370416  0.71295454  0.72543763     1.51600
Co24       Co  0.23192425  0.78939305  0.79682600     1.51500
O25         O  0.25408648  0.75597495  0.75538638    -1.42900
C26         C  0.20831189  0.72203543  0.83565494     1.08700
C27         C  0.20569183  0.77128856  0.67705861     1.08700
C28         C  0.20364789  0.65734459  0.74637639     1.08700
C29         C  0.20987301  0.83675880  0.73545852     1.08700
O30         O  0.70268987  0.20166856  0.67426335    -0.81000
O31         O  0.75005481  0.18558790  0.81765693    -0.81000
O32         O  0.82442196  0.23576008  0.71936983    -0.81000
O33         O  0.66374189  0.23087214  0.78538124    -0.80900
O34         O  0.80534201  0.18778203  0.75563396    -0.81100
O35         O  0.69340509  0.18533307  0.75222928    -0.81000
O36         O  0.71315379  0.23234895  0.84111294    -0.81000
O37         O  0.76420249  0.21499636  0.68388701    -0.81000
C38         C  0.73782488  0.19786558  0.66490350     1.08700
C39         C  0.72491370  0.19760496  0.84135585     1.08600
C40         C  0.82906068  0.20172647  0.73173625     1.08700
C41         C  0.66519321  0.19658035  0.77282615     1.08600
O42         O  0.66805790  0.25624592  0.72154663    -0.81000
O43         O  0.82746131  0.26281174  0.78343119    -0.81000
O44         O  0.78666524  0.28875008  0.67091319    -0.81000
O45         O  0.74240643  0.30600739  0.81873361    -0.81000
O46         O  0.77806553  0.25804900  0.84068900    -0.81000
O47         O  0.72594370  0.27492642  0.68388009    -0.81000
O48         O  0.68637289  0.30486753  0.75703533    -0.80900
O49         O  0.79704382  0.30648957  0.74850874    -0.81000
Co50       Co  0.71670236  0.22698256  0.72003388     1.51500
Co51       Co  0.78744935  0.22344638  0.79680162     1.51700
Co52       Co  0.77444167  0.26369363  0.71816666     1.51600
Co53       Co  0.70447073  0.26876131  0.79794379     1.51500
O54         O  0.74583722  0.24599071  0.76387910    -1.42900
C55         C  0.66469478  0.29111797  0.73145205     1.08700
C56         C  0.82476896  0.29689375  0.77013750     1.08700
C57         C  0.75116292  0.29274541  0.66355365     1.08700
C58         C  0.76521574  0.29224421  0.84343688     1.08700
O59         O  0.66706767  0.70572315  0.19561301    -0.81000
O60         O  0.81497516  0.75122180  0.18613836    -0.81000
O61         O  0.71269318  0.82618238  0.23070565    -0.81000
O62         O  0.77890427  0.66621530  0.22463516    -0.80900
O63         O  0.75279873  0.80692733  0.18565028    -0.81100
O64         O  0.74634671  0.69794882  0.18045639    -0.81000
O65         O  0.83558656  0.71475369  0.23340636    -0.81000
O66         O  0.67558004  0.76702757  0.21099387    -0.81000
C67         C  0.65698373  0.74082602  0.19300366     1.08700
C68         C  0.83759606  0.72548292  0.19907126     1.08600
C69         C  0.72738678  0.83032830  0.19788628     1.08700
C70         C  0.76782882  0.66976395  0.19039813     1.08600
O71         O  0.71332479  0.66859295  0.24772479    -0.81000
O72         O  0.77640705  0.82955366  0.25970692    -0.81000
O73         O  0.66236520  0.78851051  0.28373652    -0.81000
O74         O  0.80765850  0.74203982  0.30440140    -0.81000
O75         O  0.83351213  0.77912996  0.25970800    -0.81000
O76         O  0.67597961  0.72760202  0.26917521    -0.81000
O77         O  0.74569564  0.68644800  0.29768072    -0.80900
O78         O  0.74011776  0.79925670  0.30197624    -0.81000
Co79       Co  0.71274405  0.71919262  0.22185008     1.51500
Co80       Co  0.79198173  0.78894093  0.22250028     1.51700
Co81       Co  0.71026025  0.77655433  0.25917661     1.51600
Co82       Co  0.78925698  0.70524531  0.26524773     1.51500
O83         O  0.75670014  0.74755168  0.24235625    -1.42900
C84         C  0.72287872  0.66311227  0.28184282     1.08700
C85         C  0.76155367  0.82753567  0.29270105     1.08700
C86         C  0.65577204  0.75260183  0.28773118     1.08700
C87         C  0.83358544  0.76528933  0.29315003     1.08700
C88         C  0.52251078  0.00094795  0.03943856     0.01500
C89         C  0.52329975  0.03136776  0.01275969     0.01500
C90         C  0.49699090  0.03178898  0.98271913     0.01500
C91         C  0.46865621  0.00307210  0.98061549     0.01500
C92         C  0.46882143  0.97179879  0.00643756     0.01500
C93         C  0.49604365  0.97049553  0.03594499     0.01500
C94         C  0.65992873  0.96980614  0.14472503     0.79400
N95         N  0.67081872  0.00344135  0.16072141    -0.78900
C96         C  0.64958014  0.03596623  0.15595876     0.81800
N97         N  0.61773690  0.03511484  0.13430386    -0.78900
C98         C  0.60701446  0.00170616  0.11790598     0.81900
N99         N  0.62797825  0.96926381  0.12315314    -0.80600
C100        C  0.65092335  0.15661442  0.04082557     0.79400
N101        N  0.66997479  0.15876960  0.00715020    -0.78900
C102        C  0.65874044  0.13804776  0.97690973     0.81800
N103        N  0.62784680  0.11480188  0.98021790    -0.78900
C104        C  0.60893380  0.11153514  0.01378881     0.81900
N105        N  0.62027643  0.13261846  0.04414429    -0.80600
C106        C  0.34368574  0.03072758  0.85463508     0.79400
N107        N  0.36819320  0.03456372  0.88423448    -0.78900
C108        C  0.39000432  0.00396764  0.89547744     0.81800
N109        N  0.38707902  0.96971640  0.87753770    -0.78900
C110        C  0.36345531  0.96599095  0.84764932     0.81900
N111        N  0.34175216  0.99630693  0.83662849    -0.80600
C112        C  0.46241667  0.14542094  0.85254652     0.79400
N113        N  0.49402173  0.15218630  0.83098519    -0.78900
C114        C  0.52853355  0.13643966  0.84005591     0.81800
N115        N  0.53101368  0.11349985  0.87132557    -0.78900
C116        C  0.49929884  0.10661901  0.89303439     0.81900
N117        N  0.46507670  0.12240781  0.88344424    -0.80600
C118        C  0.52675368  0.82865115  0.14529470     0.79400
N119        N  0.52788751  0.85669270  0.11806256    -0.78900
C120        C  0.49784622  0.88193183  0.11436785     0.81800
N121        N  0.46688527  0.87912606  0.13800145    -0.78900
C122        C  0.46582924  0.85157273  0.16540778     0.81900
N123        N  0.49572222  0.82680669  0.16845810    -0.80600
C124        C  0.34302900  0.84961311  0.02990523     0.79400
N125        N  0.33909018  0.82718999  0.99873296    -0.78900
C126        C  0.35997548  0.83340545  0.96660511     0.81800
N127        N  0.38571793  0.86279995  0.96607846    -0.78900
C128        C  0.39006555  0.88532993  0.99734280     0.81900
N129        N  0.36870726  0.87867850  0.02899050    -0.80600
C130        C  0.97474583  0.47392124  0.98940369     0.01500
C131        C  0.00459075  0.47323747  0.96200700     0.01500
C132        C  0.03609610  0.49834281  0.96594929     0.01500
C133        C  0.03804803  0.52270379  0.99784886     0.01500
C134        C  0.00802842  0.52327502  0.02487212     0.01500
C135        C  0.97629996  0.49882974  0.02088428     0.01500
C136        C  0.15339706  0.65160587  0.97220523     0.79400
N137        N  0.13024603  0.62051681  0.97307708    -0.78900
C138        C  0.12328750  0.60169276  0.00603365     0.81800
N139        N  0.14022982  0.61342048  0.03856109    -0.78900
C140        C  0.16397437  0.64438811  0.03796907     0.81900
N141        N  0.16999343  0.66350474  0.00467796    -0.80600
C142        C  0.15574598  0.52725237  0.83411571     0.79400
N143        N  0.17438665  0.49316334  0.82921346    -0.78900
C144        C  0.16758725  0.46275934  0.85250592     0.81800
N145        N  0.14090180  0.46598586  0.88037202    -0.78900
C146        C  0.12201605  0.49972251  0.88584159     0.81900
N147        N  0.12926643  0.53033032  0.86263579    -0.80600
C148        C  0.97138725  0.65530171  0.13527965     0.79400
N149        N  0.00340330  0.66760441  0.15264863    -0.78900
C150        C  0.03741406  0.64908184  0.14756600     0.81800
N151        N  0.03934666  0.61809811  0.12426122    -0.78900
C152        C  0.00725373  0.60583862  0.10652413     0.81900
N153        N  0.97326965  0.62406706  0.11248927    -0.80600
C154        C  0.86020233  0.47216673  0.15584919     0.79400
N155        N  0.83824537  0.50441424  0.15905533    -0.78900
C156        C  0.84265386  0.53511234  0.13551467     0.81800
N157        N  0.87010414  0.53343488  0.10794061    -0.78900
C158        C  0.89232270  0.50123890  0.10392832     0.81900
N159        N  0.88730768  0.47067131  0.12786776    -0.80600
C160        C  0.96214771  0.35573992  0.83408970     0.79400
N161        N  0.96422122  0.38396016  0.86071179    -0.78900
C162        C  0.99778847  0.39048089  0.87910681     0.81800
N163        N  0.02921263  0.36851462  0.87109700    -0.78900
C164        C  0.02742239  0.34007800  0.84484244     0.81900
N165        N  0.99387646  0.33419438  0.82659463    -0.80600
C166        C  0.86117052  0.35108857  0.03462780     0.79400
N167        N  0.88696378  0.37922625  0.02800838    -0.78900
C168        C  0.88911053  0.39619449  0.99348538     0.81800
N169        N  0.86492973  0.38567631  0.96553366    -0.78900
C170        C  0.83858647  0.35776461  0.97210320     0.81900
N171        N  0.83692485  0.34057907  0.00675585    -0.80600
C172        C  0.47889840  0.53283472  0.50499370     0.01500
C173        C  0.47742958  0.50428472  0.53368737     0.01500
C174        C  0.50450607  0.47356370  0.53350833     0.01500
C175        C  0.53456508  0.47248226  0.50627060     0.01500
C176        C  0.53663181  0.50236668  0.47898071     0.01500
C177        C  0.50889339  0.53223821  0.47786700     0.01500
C178        C  0.53233562  0.35109332  0.65714601     0.79400
N179        N  0.50144108  0.32810883  0.66205449    -0.78900
C180        C  0.46903181  0.33374674  0.64158456     0.81800
N181        N  0.46797256  0.36294904  0.61580138    -0.78900
C182        C  0.49908402  0.38584988  0.61061381     0.81900
N183        N  0.53126298  0.37960131  0.63097377    -0.80600
C184        C  0.33884296  0.64151900  0.46957226     0.79400
N185        N  0.36927022  0.61677007  0.46901335    -0.78900
C186        C  0.39129065  0.61218867  0.50049180     0.81800
N187        N  0.38299731  0.63240391  0.53248138    -0.78900
C188        C  0.35282261  0.65721017  0.53330107     0.81900
N189        N  0.33113456  0.66133534  0.50183018    -0.80600
C190        C  0.65359623  0.52822956  0.34746354     0.79400
N191        N  0.65816698  0.49369420  0.33009820    -0.78900
C192        C  0.64059106  0.46194026  0.34400396     0.81800
N193        N  0.61864247  0.46453316  0.37558991    -0.78900
C194        C  0.61342861  0.49895489  0.39259878     0.81900
N195        N  0.63104762  0.53079773  0.37884555    -0.80600
C196        C  0.46962197  0.64312143  0.34637530     0.79400
N197        N  0.49889160  0.66690136  0.33696318    -0.78900
C198        C  0.53331957  0.66409933  0.35444801     0.81800
N199        N  0.53805902  0.63694680  0.38220907    -0.78900
C200        C  0.50844390  0.61333256  0.39223137     0.81900
N201        N  0.47428425  0.61693022  0.37450820    -0.80600
C202        C  0.35697477  0.52871180  0.66769766     0.79400
N203        N  0.38463479  0.53334227  0.64039685    -0.78900
C204        C  0.39340694  0.50397657  0.61621195     0.81800
N205        N  0.37457821  0.47012265  0.61933114    -0.78900
C206        C  0.34656501  0.46551155  0.64570245     0.81900
N207        N  0.33822239  0.49456821  0.67005894    -0.80600
C208        C  0.66751894  0.35084217  0.53466581     0.79400
N209        N  0.63918365  0.37815264  0.53567583    -0.78900
C210        C  0.61710921  0.38506546  0.50444627     0.81800
N211        N  0.62346390  0.36418192  0.47211195    -0.78900
C212        C  0.65147492  0.33654364  0.47105828     0.81900
N213        N  0.67295329  0.33062185  0.50238751    -0.80600
C214        C  0.01126251  0.98851433  0.53458773     0.01500
C215        C  0.00979185  0.95955031  0.50690908     0.01500
C216        C  0.98205972  0.96158526  0.47815803     0.01500
C217        C  0.95331748  0.99051121  0.47913565     0.01500
C218        C  0.95390250  0.01871301  0.50806849     0.01500
C219        C  0.98404364  0.01868757  0.53462209     0.01500
C220        C  0.02804139  0.15880388  0.63740696     0.79400
N221        N  0.99698597  0.16620827  0.65971370    -0.78900
C222        C  0.96461704  0.14492783  0.65760085     0.81800
N223        N  0.96328981  0.11566635  0.63234650    -0.78900
C224        C  0.99400888  0.10770881  0.60978192     0.81900
N225        N  0.02648596  0.12913975  0.61236659    -0.80600
C226        C  0.15248657  0.02691111  0.63026554     0.79400
N227        N  0.16454867  0.99617186  0.65059058    -0.78900
C228        C  0.14591488  0.96199258  0.64920130     0.81800
N229        N  0.11455248  0.95883818  0.62679765    -0.78900
C230        C  0.10227504  0.98976889  0.60634613     0.81900
N231        N  0.12080885  0.02384304  0.60870732    -0.80600
C232        C  0.14283047  0.84360762  0.47822848     0.78800
N233        N  0.15336296  0.82655595  0.51132294    -0.78900
C234        C  0.13286281  0.83305578  0.54372391     0.81800
N235        N  0.10259517  0.85787394  0.54305760    -0.78900
C236        C  0.09209562  0.87498219  0.51002211     0.81900
N237        N  0.11201653  0.86752530  0.47775007    -0.80600
C238        C  0.84677079  0.15566514  0.47478534     0.79400
N239        N  0.82257958  0.16408859  0.50401556    -0.78900
C240        C  0.82372630  0.14327685  0.53680264     0.81800
N241        N  0.84953943  0.11375401  0.53983289    -0.78900
C242        C  0.87353051  0.10517383  0.51041285     0.81900
N243        N  0.87164921  0.12586488  0.47800993    -0.80600
C244        C  0.84914505  0.02541904  0.34011010     0.79400
N245        N  0.82641418  0.99454337  0.33346567    -0.78900
C246        C  0.82724196  0.96267297  0.35598708     0.81800
N247        N  0.85163794  0.96188953  0.38589593    -0.78900
C248        C  0.87441923  0.99270926  0.39315669     0.81900
N249        N  0.87309198  0.02427664  0.37025783    -0.80600
C250        C  0.02990354  0.85540269  0.34316691     0.79400
N251        N  0.99964532  0.83247901  0.33538078    -0.78900
C252        C  0.96629177  0.83485132  0.35522715     0.81800
N253        N  0.96307646  0.86106614  0.38340754    -0.78900
C254        C  0.99299303  0.88428340  0.39167534     0.81900
N255        N  0.02650363  0.88142134  0.37171902    -0.80600
O256        O  0.24440807  0.18469760  0.67890459    -0.81000
O257        O  0.25462416  0.30226906  0.68057006    -0.81000
O258        O  0.16369263  0.21679653  0.72390523    -0.81000
O259        O  0.33296288  0.26811275  0.72844539    -0.80900
O260        O  0.19334917  0.24683961  0.67710313    -0.81100
O261        O  0.30615380  0.23989836  0.67952900    -0.81000
O262        O  0.28503487  0.32403251  0.73043479    -0.81000
O263        O  0.21178657  0.16129653  0.72720878    -0.81000
C264        C  0.22029656  0.16086133  0.69227582     1.08700
C265        C  0.27798299  0.32573196  0.69533096     1.08600
C266        C  0.16532208  0.22703233  0.68919579     1.08700
C267        C  0.33341773  0.25916965  0.69352129     1.08600
O268        O  0.32896504  0.20469536  0.75045648    -0.81000
O269        O  0.16560326  0.27908556  0.74856503    -0.81000
O270        O  0.24373565  0.18529217  0.79863469    -0.81000
O271        O  0.24926737  0.29863408  0.80004336    -0.81000
O272        O  0.22142709  0.32683768  0.75142178    -0.81000
O273        O  0.27366054  0.15700471  0.75095297    -0.81000
O274        O  0.30465148  0.23602041  0.79918505    -0.80900
O275        O  0.18883414  0.24724853  0.79711620    -0.81000
Co276      Co  0.28465752  0.20074700  0.71500238     1.51500
Co277      Co  0.21234378  0.28459961  0.71459147     1.51700
Co278      Co  0.20601212  0.20627761  0.76172761     1.51600
Co279      Co  0.28887721  0.27808914  0.76424796     1.51500
O280        O  0.24804828  0.24248569  0.73878826    -1.42900
C281        C  0.32891862  0.21226908  0.78557279     1.08700
C282        C  0.16342975  0.26918380  0.78323796     1.08700
C283        C  0.26429395  0.15785835  0.78585304     1.08700
C284        C  0.22777827  0.32505480  0.78670493     1.08700
O285        O  0.77361237  0.16595630  0.27557501    -0.81000
O286        O  0.77163078  0.33839062  0.22811074    -0.81000
O287        O  0.82399892  0.25952296  0.19549083    -0.81000
O288        O  0.82028669  0.24675428  0.31055562    -0.80900
O289        O  0.77415501  0.29126054  0.17311306    -0.81100
O290        O  0.77063536  0.21288734  0.33054801    -0.81000
O291        O  0.82097929  0.31117700  0.25631605    -0.81000
O292        O  0.82359934  0.19429670  0.24903229    -0.81000
C293        C  0.80907310  0.16587703  0.26696782     1.08700
C294        C  0.80689835  0.33880901  0.23691788     1.08600
C295        C  0.80979983  0.28403993  0.17252120     1.08700
C296        C  0.80554514  0.22226118  0.33327573     1.08600
O297        O  0.69901566  0.24730467  0.30752269    -0.81000
O298        O  0.70292878  0.25416417  0.19427800    -0.81000
O299        O  0.75324052  0.17211947  0.21316337    -0.81000
O300        O  0.74707161  0.33154395  0.28924013    -0.81000
O301        O  0.69987422  0.30684856  0.25642002    -0.81000
O302        O  0.70233873  0.19372212  0.24384115    -0.81000
O303        O  0.74698993  0.27576639  0.33616933    -0.80900
O304        O  0.75347556  0.22819922  0.16656720    -0.81000
Co305      Co  0.73660802  0.20930978  0.28578119     1.51500
Co306      Co  0.73730270  0.29355984  0.21641116     1.51700
Co307      Co  0.78839000  0.21716730  0.21033544     1.51600
Co308      Co  0.78409248  0.28778133  0.29379245     1.51500
O309        O  0.76194330  0.25189482  0.25166273    -1.42900
C310        C  0.71184136  0.26625770  0.33549678     1.08700
C311        C  0.71772188  0.23534117  0.16700198     1.08700
C312        C  0.71758351  0.17040931  0.22031984     1.08700
C313        C  0.71185085  0.33055667  0.28072918     1.08700
O314        O  0.30747070  0.69069904  0.26140525    -0.81000
O315        O  0.18990183  0.69609688  0.24758611    -0.81000
O316        O  0.27480664  0.73335002  0.34029092    -0.81000
O317        O  0.22425059  0.74423313  0.17413518    -0.80900
O318        O  0.24413635  0.68744805  0.30977586    -0.81100
O319        O  0.25212109  0.69278459  0.19895795    -0.81000
O320        O  0.16929721  0.74936395  0.22109112    -0.81000
O321        O  0.33067911  0.73920125  0.29354282    -0.81000
C322        C  0.33156906  0.70389830  0.28476167     1.08700
C323        C  0.16627165  0.71342874  0.22620319     1.08600
C324        C  0.26448410  0.69834057  0.33759374     1.08700
C325        C  0.23210417  0.70847166  0.17285060     1.08600
O326        O  0.28854920  0.76288000  0.17709728    -0.81000
O327        O  0.21223032  0.75763020  0.33896629    -0.81000
O328        O  0.30588145  0.81246115  0.26397736    -0.81000
O329        O  0.19795630  0.81758844  0.25646580    -0.81000
O330        O  0.16716094  0.76898075  0.28376215    -0.81000
O331        O  0.33408709  0.76478018  0.23258203    -0.81000
O332        O  0.25970048  0.81460736  0.19874222    -0.80900
O333        O  0.24398942  0.80869259  0.32027188    -0.81000
Co334      Co  0.29147580  0.72786210  0.22140024     1.51500
Co335      Co  0.20740425  0.72762628  0.29127519     1.51700
Co336      Co  0.28533498  0.77373387  0.30045558     1.51600
Co337      Co  0.21656856  0.78102048  0.21702607     1.51500
O338        O  0.25026592  0.75261281  0.25753554    -1.42900
C339        C  0.28000705  0.79809872  0.17329313     1.08700
C340        C  0.21996480  0.79288638  0.34272253     1.08700
C341        C  0.33297540  0.79989675  0.24289608     1.08700
C342        C  0.16955703  0.80474260  0.27555516     1.08700
C343        C  0.06616044  0.82555314  0.28960104    -0.14200
C344        C  0.06608922  0.85036760  0.32089962     0.08000
C345        C  0.10104539  0.86717339  0.33154007    -0.14200
C346        C  0.13559637  0.85639934  0.31335011    -0.14200
C347        C  0.13548478  0.82836476  0.28481453     0.08000
C348        C  0.10029527  0.81463814  0.27206285    -0.14200
H349        H  0.03996004  0.81257202  0.27983384     0.12000
H350        H  0.10203303  0.88669081  0.35529096     0.12000
H351        H  0.16244887  0.86723880  0.32386669     0.12000
H352        H  0.09942560  0.79291518  0.25027043     0.12000
C353        C  0.82035438  0.06094843  0.28517780    -0.14200
C354        C  0.84636430  0.06035176  0.31529799     0.08000
C355        C  0.86733107  0.09413125  0.32249004    -0.14200
C356        C  0.85960465  0.12847865  0.30246452    -0.14200
C357        C  0.83012005  0.12975231  0.27573150     0.08000
C358        C  0.81227671  0.09512298  0.26587922    -0.14200
H359        H  0.80423399  0.03554736  0.27798084     0.12000
H360        H  0.88801958  0.09469911  0.34509398     0.12000
H361        H  0.87365487  0.15474366  0.31080858     0.12000
H362        H  0.78946560  0.09519296  0.24528558     0.12000
C363        C  0.82785949  0.15021395  0.40834105    -0.14200
C364        C  0.84144061  0.17339557  0.43739239     0.08000
C365        C  0.84856657  0.21251962  0.43023914    -0.14200
C366        C  0.84126012  0.22829397  0.39423669    -0.14200
C367        C  0.82579462  0.20520626  0.36567879     0.08000
C368        C  0.81906921  0.16616715  0.37339972    -0.14200
H369        H  0.82184794  0.12008844  0.41343112     0.12000
H370        H  0.85896709  0.23083897  0.45256742     0.12000
H371        H  0.84486069  0.25886456  0.38965076     0.12000
H372        H  0.80468123  0.14832252  0.35300160     0.12000
C373        C  0.21935747  0.83479669  0.40108893    -0.14200
C374        C  0.19987936  0.81288426  0.37414227     0.08000
C375        C  0.16147785  0.80296790  0.38138476    -0.14200
C376        C  0.14293138  0.81428137  0.41461349    -0.14200
C377        C  0.16275832  0.83437473  0.44235319     0.08000
C378        C  0.20098153  0.84508820  0.43529931    -0.14200
H379        H  0.24921072  0.84189431  0.39673324     0.12000
H380        H  0.14592339  0.78546090  0.36150127     0.12000
H381        H  0.11343434  0.80594104  0.41935588     0.12000
H382        H  0.21664722  0.86091402  0.45639681     0.12000
C383        C  0.20476199  0.07619487  0.62708136    -0.14200
C384        C  0.16801763  0.06484041  0.63906766     0.08000
C385        C  0.14765227  0.08749598  0.66486110    -0.14200
C386        C  0.16451744  0.11972649  0.68046241    -0.14200
C387        C  0.20159748  0.13103372  0.66950856     0.08000
C388        C  0.22129488  0.10971040  0.64177832    -0.14200
H389        H  0.22105488  0.05845454  0.60757280     0.12000
H390        H  0.11952945  0.07885550  0.67477008     0.12000
H391        H  0.14876814  0.13547482  0.70199315     0.12000
H392        H  0.25019604  0.11736994  0.63354848     0.12000
C393        C  0.09885018  0.17210777  0.62576433    -0.14200
C394        C  0.06339967  0.18213736  0.64253129     0.08000
C395        C  0.06230623  0.21369112  0.66731779    -0.14200
C396        C  0.09594723  0.23143911  0.67868075    -0.14200
C397        C  0.13163294  0.21846453  0.66559044     0.08000
C398        C  0.13275012  0.19064992  0.63685972    -0.14200
H399        H  0.10074894  0.14852940  0.60591618     0.12000
H400        H  0.03559038  0.22339028  0.67987826     0.12000
H401        H  0.09428541  0.25387608  0.69969879     0.12000
H402        H  0.15993455  0.18091296  0.62545773     0.12000
C403        C  0.98446730  0.93466262  0.44693888    -0.14100
C404        C  0.98868975  0.91200910  0.42144695    -0.15700
C405        C  0.92398530  0.99153113  0.44989705    -0.14100
C406        C  0.90077218  0.99178455  0.42455261    -0.15700
C407        C  0.90034126  0.07354019  0.51229460    -0.14100
C408        C  0.92413854  0.04816127  0.51040832    -0.15700
C409        C  0.98789913  0.05024901  0.56125560    -0.14100
C410        C  0.99161083  0.07658735  0.58313488    -0.15700
C411        C  0.04194579  0.98784101  0.56202762    -0.14100
C412        C  0.06893297  0.98738416  0.58306862    -0.15700
C413        C  0.03755025  0.92810210  0.50776265    -0.14100
C414        C  0.06157403  0.90299270  0.50930969    -0.15700
C415        C  0.65473039  0.29778813  0.36883667    -0.14200
C416        C  0.68884724  0.27602681  0.36982617     0.08000
C417        C  0.70673982  0.27061441  0.40479056    -0.14200
C418        C  0.69313407  0.28876321  0.43729726    -0.14200
C419        C  0.66120142  0.31365254  0.43622653     0.08000
C420        C  0.64123534  0.31690402  0.40175583    -0.14200
H421        H  0.64041960  0.30265361  0.34219323     0.12000
H422        H  0.73297944  0.25393197  0.40657465     0.12000
H423        H  0.70921159  0.28456766  0.46303665     0.12000
H424        H  0.61629592  0.33538619  0.39982455     0.12000
C425        C  0.35138984  0.40032103  0.67229850    -0.14200
C426        C  0.33000857  0.42731380  0.65205893     0.08000
C427        C  0.29250724  0.41838045  0.64110311    -0.14200
C428        C  0.27613267  0.38303106  0.65172362    -0.14200
C429        C  0.29692793  0.35701065  0.67415461     0.08000
C430        C  0.33478717  0.36594926  0.68386521    -0.14200
H431        H  0.38027368  0.40682792  0.68107701     0.12000
H432        H  0.27559308  0.43919629  0.62557620     0.12000
H433        H  0.24654139  0.37735432  0.64492710     0.12000
H434        H  0.35110264  0.34693346  0.70201970     0.12000
C435        C  0.41887490  0.63971972  0.29628754    -0.14200
C436        C  0.43115589  0.65172997  0.33214247     0.08000
C437        C  0.40804731  0.67642960  0.35349540    -0.14200
C438        C  0.37437195  0.69110555  0.33847652    -0.14200
C439        C  0.36238199  0.68068768  0.30205607     0.08000
C440        C  0.38422121  0.65381507  0.28142582    -0.14200
H441        H  0.43672554  0.62080164  0.27933878     0.12000
H442        H  0.41717966  0.68609026  0.38107951     0.12000
H443        H  0.35817965  0.71186226  0.35498136     0.12000
H444        H  0.37597408  0.64592035  0.25305233     0.12000
C445        C  0.64138284  0.41164940  0.29380005    -0.14200
C446        C  0.65190902  0.42426004  0.32988062     0.08000
C447        C  0.67790720  0.40292120  0.35125670    -0.14200
C448        C  0.69575139  0.37096598  0.33560723    -0.14200
C449        C  0.68668288  0.35889270  0.29891323     0.08000
C450        C  0.65827832  0.37845817  0.27855578    -0.14200
H451        H  0.62141044  0.42825279  0.27701487     0.12000
H452        H  0.68636916  0.41254116  0.37907339     0.12000
H453        H  0.71775235  0.35639520  0.35174193     0.12000
H454        H  0.65140333  0.36988919  0.25000008     0.12000
C455        C  0.32260355  0.63222934  0.39987083    -0.14200
C456        C  0.31445317  0.64858061  0.43554977     0.08000
C457        C  0.28342651  0.67444931  0.43833808    -0.14200
C458        C  0.26393998  0.68674056  0.40617340    -0.14200
C459        C  0.27429701  0.67326529  0.37015258     0.08000
C460        C  0.30230109  0.64418428  0.36745173    -0.14200
H461        H  0.34593640  0.61186404  0.39662254     0.12000
H462        H  0.27547444  0.68721478  0.46518772     0.12000
H463        H  0.24260158  0.70930595  0.40911082     0.12000
H464        H  0.31083554  0.63324452  0.34001563     0.12000
C465        C  0.43647340  0.28135491  0.67790351    -0.14200
C466        C  0.43509688  0.30886795  0.64873784     0.08000
C467        C  0.40053895  0.31355759  0.62878618    -0.14200
C468        C  0.36738944  0.29351430  0.64010149    -0.14200
C469        C  0.36833866  0.26933400  0.67197405     0.08000
C470        C  0.40353229  0.26213247  0.68947737    -0.14200
H471        H  0.46253257  0.27621388  0.69352363     0.12000
H472        H  0.39856449  0.33414021  0.60582873     0.12000
H473        H  0.34048254  0.29970199  0.62631928     0.12000
H474        H  0.40499307  0.24346418  0.71405705     0.12000
C475        C  0.44869916  0.56187738  0.50253343    -0.14100
C476        C  0.42277191  0.58507440  0.50068437    -0.15700
C477        C  0.44797102  0.50652924  0.56334395    -0.14100
C478        C  0.42341065  0.50745614  0.58786012    -0.15700
C479        C  0.51180584  0.58569979  0.42293960    -0.14100
C480        C  0.51095676  0.56188763  0.44821932    -0.15700
C481        C  0.58899740  0.50133490  0.42490955    -0.14100
C482        C  0.56634806  0.50169552  0.45057051    -0.15700
C483        C  0.58749612  0.41523016  0.50539918    -0.14100
C484        C  0.56325848  0.44085820  0.50608963    -0.15700
C485        C  0.50086187  0.44253603  0.56077087    -0.14100
C486        C  0.49865998  0.41645468  0.58325911    -0.15700
C487        C  0.83010503  0.35656263  0.09681829    -0.14200
C488        C  0.85525476  0.33647852  0.07317408     0.08000
C489        C  0.87108447  0.30136748  0.08545088    -0.14200
C490        C  0.85965035  0.28530788  0.12035711    -0.14200
C491        C  0.83188394  0.30411383  0.14263177     0.08000
C492        C  0.81829476  0.34044045  0.13093805    -0.14200
H493        H  0.81780525  0.38373805  0.08782619     0.12000
H494        H  0.89069324  0.28561231  0.06728585     0.12000
H495        H  0.87003598  0.25706734  0.12834792     0.12000
H496        H  0.79674558  0.35560935  0.14741012     0.12000
C497        C  0.06017197  0.29221187  0.80273182    -0.14200
C498        C  0.06203684  0.31722888  0.83380221     0.08000
C499        C  0.09751569  0.32144001  0.85210846    -0.14200
C500        C  0.13065737  0.30300069  0.83794484    -0.14200
C501        C  0.12886097  0.28092127  0.80483637     0.08000
C502        C  0.09312518  0.27458060  0.78842236    -0.14200
H503        H  0.03347280  0.28747459  0.78819141     0.12000
H504        H  0.09995476  0.34002140  0.87645814     0.12000
H505        H  0.15789380  0.30797659  0.85137452     0.12000
H506        H  0.09088807  0.25678093  0.76358179     0.12000
C507        C  0.81011212  0.40924714  0.22879011    -0.14200
C508        C  0.82871185  0.37357627  0.22496056     0.08000
C509        C  0.86191032  0.37169090  0.20215286    -0.14200
C510        C  0.87346412  0.40394750  0.18040239    -0.14200
C511        C  0.85255229  0.43881947  0.18195573     0.08000
C512        C  0.82190638  0.44128450  0.20796029    -0.14200
H513        H  0.78454785  0.41172783  0.24623258     0.12000
H514        H  0.87677294  0.34455546  0.19845796     0.12000
H515        H  0.89752534  0.40099411  0.16110616     0.12000
H516        H  0.80536648  0.46753771  0.21085645     0.12000
C517        C  0.07306041  0.70298674  0.17514226    -0.14200
C518        C  0.07157644  0.66372328  0.16707282     0.08000
C519        C  0.10164990  0.63959868  0.17924754    -0.14200
C520        C  0.13236542  0.65484203  0.19988972    -0.14200
C521        C  0.13372006  0.69445415  0.20741313     0.08000
C522        C  0.10365027  0.71809056  0.19465738    -0.14200
H523        H  0.05055581  0.72236674  0.16599561     0.12000
H524        H  0.10099053  0.60906286  0.17348765     0.12000
H525        H  0.15516454  0.63599753  0.20927143     0.12000
H526        H  0.10361470  0.74875732  0.19960617     0.12000
C527        C  0.21285010  0.40607879  0.85743323    -0.14200
C528        C  0.18109044  0.42451140  0.84099208     0.08000
C529        C  0.16253776  0.40726982  0.81076635    -0.14200
C530        C  0.17663154  0.37336097  0.79542989    -0.14200
C531        C  0.20984009  0.35572023  0.80982515     0.08000
C532        C  0.22722183  0.37157179  0.84187467    -0.14200
H533        H  0.22735141  0.41914458  0.88103673     0.12000
H534        H  0.13777546  0.42089278  0.79807288     0.12000
H535        H  0.16220410  0.36164334  0.77107577     0.12000
H536        H  0.25293083  0.35869644  0.85333742     0.12000
C537        C  0.18815103  0.63512050  0.10540749    -0.14200
C538        C  0.18272791  0.65840320  0.07299207     0.08000
C539        C  0.19602153  0.69627766  0.07366992    -0.14200
C540        C  0.21336596  0.71092391  0.10567051    -0.14200
C541        C  0.21849965  0.68834907  0.13841047     0.08000
C542        C  0.20638922  0.64988483  0.13780297    -0.14200
H543        H  0.17835096  0.60565160  0.10569170     0.12000
H544        H  0.19233125  0.71521043  0.04956357     0.12000
H545        H  0.22212128  0.74073289  0.10490768     0.12000
H546        H  0.20969365  0.63185852  0.16259123     0.12000
C547        C  0.09180800  0.50124798  0.91391144    -0.14100
C548        C  0.06630629  0.49972667  0.93728206    -0.15700
C549        C  0.07056240  0.54799425  0.00272050    -0.14100
C550        C  0.09593173  0.57107056  0.00613543    -0.15700
C551        C  0.00913104  0.55031661  0.05598175    -0.14100
C552        C  0.00920469  0.57465857  0.08015342    -0.15700
C553        C  0.92122735  0.49960998  0.07422801    -0.14100
C554        C  0.94575629  0.49892016  0.04963960    -0.15700
C555        C  0.91741495  0.42493110  0.98702244    -0.14100
C556        C  0.94297404  0.44786432  0.98618525    -0.15700
C557        C  0.00309799  0.44561539  0.93089272    -0.14100
C558        C  0.00046599  0.42097056  0.90680989    -0.15700
C559        C  0.31143491  0.80132023  0.07116994    -0.14200
C560        C  0.32243764  0.83949282  0.06556419     0.08000
C561        C  0.31530117  0.86624730  0.09484897    -0.14200
C562        C  0.29866579  0.85434757  0.12956703    -0.14200
C563        C  0.29076069  0.81526073  0.13592935     0.08000
C564        C  0.29627655  0.78943086  0.10565437    -0.14200
H565        H  0.31621539  0.77991659  0.04942522     0.12000
H566        H  0.32292853  0.89614352  0.09103180     0.12000
H567        H  0.29344069  0.87527435  0.15157725     0.12000
H568        H  0.28986954  0.75916176  0.10884424     0.12000
C569        C  0.39651955  0.86417193  0.18448524    -0.14200
C570        C  0.43218007  0.84631660  0.19107099     0.08000
C571        C  0.43497885  0.81983877  0.22113697    -0.14200
C572        C  0.40253346  0.80826009  0.24114329    -0.14200
C573        C  0.36644275  0.82326846  0.23225907     0.08000
C574        C  0.36386895  0.85285388  0.20530607    -0.14200
H575        H  0.39338961  0.88505096  0.16191377     0.12000
H576        H  0.46195051  0.80602353  0.22780784     0.12000
H577        H  0.40520287  0.78522869  0.26171737     0.12000
H578        H  0.33630290  0.86502336  0.19854933     0.12000
C579        C  0.37823239  0.21274109  0.83724286    -0.14200
C580        C  0.35877402  0.19329094  0.80854623     0.08000
C581        C  0.37186267  0.15664518  0.79742968    -0.14200
C582        C  0.40445353  0.14034799  0.81346577    -0.14200
C583        C  0.42509073  0.16059731  0.84049036     0.08000
C584        C  0.41150061  0.19654842  0.85294135    -0.14200
H585        H  0.36913591  0.24124465  0.84579795     0.12000
H586        H  0.35740269  0.14097982  0.77536221     0.12000
H587        H  0.41449167  0.11257524  0.80361445     0.12000
H588        H  0.42741083  0.21263736  0.87366600     0.12000
C589        C  0.31716497  0.09900704  0.85966215    -0.14200
C590        C  0.31903284  0.06310563  0.84122750     0.08000
C591        C  0.29742268  0.05811830  0.80826095    -0.14200
C592        C  0.27706526  0.08857963  0.79252377    -0.14200
C593        C  0.27715572  0.12501583  0.80930709     0.08000
C594        C  0.29595929  0.12972116  0.84397056    -0.14200
H595        H  0.33310612  0.10375232  0.88533010     0.12000
H596        H  0.29742885  0.03096951  0.79338477     0.12000
H597        H  0.26264943  0.08410896  0.76588115     0.12000
H598        H  0.29672767  0.15769031  0.85727616     0.12000
C599        C  0.71382773  0.22129949  0.09894359    -0.14200
C600        C  0.69552233  0.22153721  0.13439352     0.08000
C601        C  0.66000787  0.20313738  0.13846116    -0.14200
C602        C  0.64463019  0.18240308  0.10799810    -0.14200
C603        C  0.66434955  0.18044667  0.07302362     0.08000
C604        C  0.69847869  0.20129087  0.06875485    -0.14200
H605        H  0.74114525  0.23544064  0.09495007     0.12000
H606        H  0.64547447  0.20274887  0.16564092     0.12000
H607        H  0.61802955  0.16707952  0.11213874     0.12000
H608        H  0.71440756  0.20110716  0.04234187     0.12000
C609        C  0.64304449  0.09465113  0.19700246    -0.14200
C610        C  0.66381493  0.07258357  0.17051400     0.08000
C611        C  0.69977666  0.08488665  0.15833127    -0.14200
C612        C  0.71561187  0.11796582  0.17319446    -0.14200
C613        C  0.69635608  0.13915819  0.20154059     0.08000
C614        C  0.65942360  0.12774827  0.21277151    -0.14200
H615        H  0.61499463  0.08544628  0.20650222     0.12000
H616        H  0.71589316  0.06853303  0.13750395     0.12000
H617        H  0.74379537  0.12617113  0.16316415     0.12000
H618        H  0.64390157  0.14353980  0.23438621     0.12000
C619        C  0.41622667  0.00692306  0.92646413    -0.14100
C620        C  0.43965166  0.00557698  0.95138656    -0.15700
C621        C  0.41832910  0.91534429  0.99817852    -0.14100
C622        C  0.44149235  0.94074876  0.00189578    -0.15700
C623        C  0.57721262  0.08526287  0.01657343    -0.14100
C624        C  0.55207406  0.06147626  0.01554380    -0.15700
C625        C  0.50012431  0.06035694  0.95264509    -0.14100
C626        C  0.50130105  0.08201639  0.92583106    -0.15700
C627        C  0.49715327  0.93806598  0.06263525    -0.14100
C628        C  0.49839499  0.91195807  0.08562657    -0.15700
C629        C  0.57513711  0.00107018  0.09283515    -0.14100
C630        C  0.55024181  0.00045269  0.06956071    -0.15700
C631        C  0.77900408  0.93081842  0.31444275    -0.14200
C632        C  0.80325896  0.92859369  0.34594038     0.08000
C633        C  0.80600885  0.89300570  0.36518597    -0.14200
C634        C  0.78784462  0.85993135  0.35094156    -0.14200
C635        C  0.76743121  0.86177136  0.31694274     0.08000
C636        C  0.76163783  0.89795118  0.30011557    -0.14200
H637        H  0.77519783  0.95761048  0.29921027     0.12000
H638        H  0.82371671  0.89024396  0.39003623     0.12000
H639        H  0.79180738  0.83263472  0.36497108     0.12000
H640        H  0.74586760  0.90033042  0.27393850     0.12000
C641        C  0.68215920  0.86386380  0.15547333    -0.14200
C642        C  0.71603328  0.86441339  0.17608252     0.08000
C643        C  0.73371527  0.89971586  0.18319083    -0.14200
C644        C  0.71657361  0.93414245  0.17131231    -0.14200
C645        C  0.68136052  0.93369196  0.15226605     0.08000
C646        C  0.66511041  0.89802241  0.14323211    -0.14200
H647        H  0.66768154  0.83715667  0.15096955     0.12000
H648        H  0.75949844  0.90076337  0.19994983     0.12000
H649        H  0.72999392  0.96108576  0.17855465     0.12000
H650        H  0.63799806  0.89646117  0.12872760     0.12000
C651        C  0.87616996  0.66821766  0.18253855    -0.14200
C652        C  0.86805260  0.70733042  0.17607075     0.08000
C653        C  0.89303164  0.72891937  0.15320155    -0.14200
C654        C  0.92651417  0.71177707  0.13853361    -0.14200
C655        C  0.93431827  0.67265780  0.14539264     0.08000
C656        C  0.90837679  0.65083248  0.16655982    -0.14200
H657        H  0.85783340  0.65114052  0.20079928     0.12000
H658        H  0.88801299  0.75935586  0.14883742     0.12000
H659        H  0.94677170  0.72915461  0.12274885     0.12000
H660        H  0.91425268  0.62083335  0.17267662     0.12000
C661        C  0.90331230  0.77186465  0.29597701    -0.14200
C662        C  0.86810397  0.77361393  0.31533843     0.08000
C663        C  0.86658678  0.79065987  0.35119602    -0.14200
C664        C  0.89889913  0.80970436  0.36529549    -0.14200
C665        C  0.93331044  0.81071648  0.34409128     0.08000
C666        C  0.93548355  0.78991490  0.31018896    -0.14200
H667        H  0.90533249  0.75848798  0.26836863     0.12000
H668        H  0.84013648  0.79115085  0.36716662     0.12000
H669        H  0.89654564  0.82471481  0.39199930     0.12000
H670        H  0.96147492  0.78937161  0.29327834     0.12000
C671        C  0.69761740  0.59702177  0.27777400    -0.14200
C672        C  0.70812928  0.62814108  0.30064573     0.08000
C673        C  0.70209669  0.62559742  0.33987224    -0.14200
C674        C  0.68392055  0.59319437  0.35543364    -0.14200
C675        C  0.67312642  0.56242448  0.33210479     0.08000
C676        C  0.68098165  0.56438289  0.29328568    -0.14200
H677        H  0.70160114  0.59808947  0.24738916     0.12000
H678        H  0.71013923  0.64903487  0.35816462     0.12000
H679        H  0.67845997  0.59208612  0.38562863     0.12000
H680        H  0.67302215  0.54118676  0.27463186     0.12000
C681        C  0.76673337  0.60041197  0.17794622    -0.14200
C682        C  0.77748217  0.63699308  0.16517181     0.08000
C683        C  0.80601488  0.63948630  0.13691661    -0.14200
C684        C  0.82628630  0.60618346  0.12524370    -0.14200
C685        C  0.81789359  0.56996375  0.14139478     0.08000
C686        C  0.78640420  0.56749217  0.16631590    -0.14200
H687        H  0.74496676  0.59753163  0.19974005     0.12000
H688        H  0.81512474  0.66735441  0.12664433     0.12000
H689        H  0.85007236  0.60921444  0.10562024     0.12000
H690        H  0.77820941  0.54024291  0.17874977     0.12000
C691        C  0.58690328  0.75037955  0.19196520    -0.14200
C692        C  0.62200486  0.75329082  0.17283520     0.08000
C693        C  0.62433205  0.77749628  0.14094273    -0.14200
C694        C  0.59319169  0.80121919  0.13062894    -0.14200
C695        C  0.55885574  0.80055769  0.15176560     0.08000
C696        C  0.55574552  0.77340142  0.18147405    -0.14200
H697        H  0.58442651  0.73245284  0.21700043     0.12000
H698        H  0.65110649  0.77978755  0.12546950     0.12000
H699        H  0.59661647  0.82117435  0.10728251     0.12000
H700        H  0.52977494  0.77126482  0.19826419     0.12000
C701        C  0.58646322  0.74733315  0.30671594    -0.14200
C702        C  0.62483332  0.73703929  0.31247277     0.08000
C703        C  0.63279277  0.70498386  0.33559187    -0.14200
C704        C  0.60326977  0.68236422  0.35091518    -0.14200
C705        C  0.56482559  0.69092635  0.34297542     0.08000
C706        C  0.55681184  0.72447561  0.32167277    -0.14200
H707        H  0.57940344  0.77131881  0.28838508     0.12000
H708        H  0.66215731  0.69641018  0.34024935     0.12000
H709        H  0.61067340  0.65701546  0.36722088     0.12000
H710        H  0.52753674  0.73231763  0.31526822     0.12000
C711        C  0.85617702  0.34856923  0.80819526    -0.14200
C712        C  0.85757456  0.32252040  0.77799202     0.08000
C713        C  0.89356170  0.31198993  0.76339760    -0.14200
C714        C  0.92726641  0.32418888  0.78067638    -0.14200
C715        C  0.92602855  0.34767376  0.81306708     0.08000
C716        C  0.89000549  0.36111025  0.82565911    -0.14200
H717        H  0.82891908  0.35727788  0.81961466     0.12000
H718        H  0.89556343  0.29223269  0.73991851     0.12000
H719        H  0.95433570  0.31381780  0.76945478     0.12000
H720        H  0.88780054  0.37956138  0.85019906     0.12000
C721        C  0.86363463  0.14663424  0.69991036    -0.14200
C722        C  0.86435464  0.18127552  0.72004206     0.08000
C723        C  0.89916858  0.20070485  0.72347352    -0.14200
C724        C  0.93198327  0.18777063  0.70468498    -0.14200
C725        C  0.93078795  0.15504220  0.68155292     0.08000
C726        C  0.89655261  0.13375865  0.68042904    -0.14200
H727        H  0.83734393  0.13069983  0.69761385     0.12000
H728        H  0.90059074  0.22693108  0.73966018     0.12000
H729        H  0.95785540  0.20455471  0.70703798     0.12000
H730        H  0.89479095  0.10797875  0.66347998     0.12000
C731        C  0.66949645  0.17211377  0.87688499    -0.14200
C732        C  0.70934346  0.17299080  0.87172279     0.08000
C733        C  0.73293079  0.15891909  0.90067285    -0.14200
C734        C  0.71660902  0.14582504  0.93483571    -0.14200
C735        C  0.67657714  0.14522182  0.93964630     0.08000
C736        C  0.65323516  0.15707524  0.90982137    -0.14200
H737        H  0.65086350  0.18555981  0.85644994     0.12000
H738        H  0.76376413  0.16102172  0.89809773     0.12000
H739        H  0.73511743  0.13747940  0.95790935     0.12000
H740        H  0.62239374  0.15793037  0.91329818     0.12000
C741        C  0.78306010  0.29039334  0.91080383    -0.14200
C742        C  0.77568466  0.31283809  0.87844496     0.08000
C743        C  0.78364547  0.35231115  0.87949303    -0.14200
C744        C  0.80365597  0.36765551  0.91032939    -0.14200
C745        C  0.81373040  0.34407559  0.94128326     0.08000
C746        C  0.80150326  0.30583431  0.94186059    -0.14200
H747        H  0.77614890  0.26005669  0.91141961     0.12000
H748        H  0.77670048  0.37061255  0.85567421     0.12000
H749        H  0.81194886  0.39759776  0.90964298     0.12000
H750        H  0.80825001  0.28703005  0.96539883     0.12000
C751        C  0.63117092  0.13866141  0.80056066    -0.14200
C752        C  0.63037607  0.17337907  0.78011020     0.08000
C753        C  0.59503896  0.19224134  0.77543671    -0.14200
C754        C  0.56197939  0.17896541  0.79339827    -0.14200
C755        C  0.56312741  0.14642219  0.81698650     0.08000
C756        C  0.59782566  0.12554254  0.81934830    -0.14200
H757        H  0.65810087  0.12388102  0.80513849     0.12000
H758        H  0.59356652  0.21918626  0.75998238     0.12000
H759        H  0.53596393  0.19575677  0.79053588     0.12000
H760        H  0.59959537  0.10007949  0.83696241     0.12000
C761        C  0.60981458  0.33874521  0.73093267    -0.14200
C762        C  0.63476249  0.31351011  0.71180559     0.08000
C763        C  0.62682760  0.30362113  0.67410549    -0.14200
C764        C  0.59438571  0.31762574  0.65611283    -0.14200
C765        C  0.56853664  0.34115213  0.67561482     0.08000
C766        C  0.57651669  0.35225044  0.71294498    -0.14200
H767        H  0.61476425  0.34599656  0.76024029     0.12000
H768        H  0.64526747  0.28381511  0.65878628     0.12000
H769        H  0.58859111  0.30871819  0.62738865     0.12000
H770        H  0.55650223  0.37029425  0.72841139     0.12000
C771        C  0.74786391  0.30659642  0.59392780    -0.14200
C772        C  0.73649212  0.31568881  0.63096726     0.08000
C773        C  0.70437535  0.33992740  0.63597871    -0.14200
C774        C  0.68278549  0.35295582  0.60493068    -0.14200
C775        C  0.69268876  0.34185815  0.56791217     0.08000
C776        C  0.72628149  0.31943371  0.56288439    -0.14200
H777        H  0.77182783  0.28728658  0.58907365     0.12000
H778        H  0.69487825  0.34728849  0.66427690     0.12000
H779        H  0.65732153  0.37009588  0.61011071     0.12000
H780        H  0.73522913  0.31044118  0.53486418     0.12000
C781        C  0.74458167  0.19179122  0.59505785    -0.14200
C782        C  0.75065794  0.17616933  0.63116624     0.08000
C783        C  0.77825353  0.14702935  0.63527562    -0.14200
C784        C  0.80099630  0.13524058  0.60447369    -0.14200
C785        C  0.79679087  0.15261335  0.56869882     0.08000
C786        C  0.76734407  0.18014444  0.56415402    -0.14200
H787        H  0.72427805  0.21512981  0.59133077     0.12000
H788        H  0.78339933  0.13479420  0.66291357     0.12000
H789        H  0.82302530  0.11377299  0.60917154     0.12000
H790        H  0.76289496  0.19396609  0.53704260     0.12000
C791        C  0.35891663  0.79519825  0.86465067    -0.14200
C792        C  0.32882642  0.76855681  0.86704391     0.08000
C793        C  0.31440318  0.75903375  0.90302354    -0.14200
C794        C  0.32657341  0.77838385  0.93529838    -0.14200
C795        C  0.35326260  0.80848175  0.93268890     0.08000
C796        C  0.37074242  0.81539449  0.89714985    -0.14200
H797        H  0.37057095  0.80318936  0.83727941     0.12000
H798        H  0.29110414  0.73874116  0.90579727     0.12000
H799        H  0.31300554  0.77126742  0.96205485     0.12000
H800        H  0.39180294  0.83791731  0.89398596     0.12000
C801        C  0.17471534  0.72832022  0.89816624    -0.14200
C802        C  0.18590673  0.70553190  0.86722645     0.08000
C803        C  0.18431501  0.66537467  0.87071888    -0.14200
C804        C  0.17150025  0.64812001  0.90416392    -0.14200
C805        C  0.16221013  0.67066509  0.93575153     0.08000
C806        C  0.16352203  0.71095516  0.93247001    -0.14200
H807        H  0.17724655  0.75930750  0.89666237     0.12000
H808        H  0.19508997  0.64726775  0.84817902     0.12000
H809        H  0.17126411  0.61702694  0.90613117     0.12000
H810        H  0.15661162  0.72887418  0.95660129     0.12000
C811        C  0.15275712  0.86539421  0.70151101    -0.14200
C812        C  0.18796873  0.86961946  0.71992031     0.08000
C813        C  0.20737785  0.90468035  0.71655198    -0.14200
C814        C  0.19335161  0.93416266  0.69391349    -0.14200
C815        C  0.15919534  0.92978727  0.67378670     0.08000
C816        C  0.13855861  0.89525618  0.67831089    -0.14200
H817        H  0.13763336  0.83834191  0.70303423     0.12000
H818        H  0.23470173  0.90868835  0.73024825     0.12000
H819        H  0.21009349  0.96017494  0.69155514     0.12000
H820        H  0.11201015  0.89101594  0.66336969     0.12000
C821        C  0.35225074  0.88478085  0.77761546    -0.14200
C822        C  0.32764764  0.86065187  0.79830613     0.08000
C823        C  0.31895361  0.86978268  0.83618453    -0.14200
C824        C  0.33362086  0.90255996  0.85292135    -0.14200
C825        C  0.35595744  0.92795945  0.83167873     0.08000
C826        C  0.36584811  0.91876793  0.79411009    -0.14200
H827        H  0.35835701  0.87903671  0.74808108     0.12000
H828        H  0.29929823  0.85220081  0.85252739     0.12000
H829        H  0.32527621  0.90947562  0.88171921     0.12000
H830        H  0.38267665  0.93857740  0.77720777     0.12000
C831        C  0.29200249  0.71103924  0.60448174    -0.14200
C832        C  0.31568787  0.71314649  0.63632320     0.08000
C833        C  0.35359589  0.69977034  0.63324771    -0.14200
C834        C  0.36633987  0.68178776  0.59964824    -0.14200
C835        C  0.34167138  0.67816305  0.56843195     0.08000
C836        C  0.30477857  0.69410020  0.57111599    -0.14200
H837        H  0.26275631  0.72157248  0.60575724     0.12000
H838        H  0.37266408  0.70159663  0.65711040     0.12000
H839        H  0.39516527  0.67026596  0.59828229     0.12000
H840        H  0.28495252  0.69224544  0.54782581     0.12000
C841        C  0.14991517  0.76956581  0.63068544    -0.14200
C842        C  0.18126752  0.78843549  0.64687027     0.08000
C843        C  0.19384494  0.82308361  0.63010645    -0.14200
C844        C  0.17709789  0.83764317  0.59742776    -0.14200
C845        C  0.14718186  0.81813997  0.58024502     0.08000
C846        C  0.13297232  0.78437126  0.59742338    -0.14200
H847        H  0.13985831  0.74266370  0.64251053     0.12000
H848        H  0.21769330  0.83870236  0.64181695     0.12000
H849        H  0.18823893  0.86383480  0.58493612     0.12000
H850        H  0.10972160  0.76889917  0.58447761     0.12000
C851        C  0.32500543  0.55295667  0.72781418    -0.14200
C852        C  0.34697630  0.56031735  0.69480509     0.08000
C853        C  0.35758532  0.59847717  0.68716748    -0.14200
C854        C  0.34463057  0.62850203  0.71043134    -0.14200
C855        C  0.32119515  0.62141367  0.74219828     0.08000
C856        C  0.31233295  0.58316960  0.75129754    -0.14200
H857        H  0.31642181  0.52391320  0.73482622     0.12000
H858        H  0.37434528  0.60543273  0.66217313     0.12000
H859        H  0.35130809  0.65776742  0.70263322     0.12000
H860        H  0.29337641  0.57687179  0.77490461     0.12000
C861        C  0.20023841  0.58684088  0.75434893    -0.14200
C862        C  0.18268562  0.62282989  0.75931301     0.08000
C863        C  0.15375935  0.62645696  0.78702907    -0.14200
C864        C  0.14396020  0.59525208  0.81055350    -0.14200
C865        C  0.16326263  0.55977400  0.80718693     0.08000
C866        C  0.19074107  0.55575976  0.77794900    -0.14200
H867        H  0.22364318  0.58359699  0.73427365     0.12000
H868        H  0.14078638  0.65428495  0.79241995     0.12000
H869        H  0.12262216  0.59954383  0.83255617     0.12000
H870        H  0.20623670  0.52898456  0.77420805     0.12000
loop_ 
_geom_bond_atom_site_label_1 
_geom_bond_atom_site_label_2 
_geom_bond_distance 
_geom_bond_site_symmetry_2 
_ccdc_geom_bond_type 
O1            C9   1.277       .  A
O1          Co21   1.923       .  S
O2           C10   1.281       .  A
O2          Co22   2.004       .  S
O3           C11   1.271       .  A
O3          Co23   1.979       .  S
O4           C12   1.278       .  A
O4          Co24   2.013       .  S
O5           C11   1.281       .  A
O5          Co22   2.020       .  S
O6           C12   1.282       .  A
O6          Co21   2.012       .  S
O7           C10   1.272       .  A
O7          Co24   1.988       .  S
O8            C9   1.292       .  A
O8          Co23   2.117       .  S
C9          C855   1.485       .  S
C10         C822   1.475       .  S
C11         C832   1.482       .  S
C12         C792   1.487       .  S
O13          C26   1.270       .  A
O13         Co21   1.987       .  S
O14          C27   1.274       .  A
O14         Co22   1.998       .  S
O15          C28   1.277       .  A
O15         Co23   1.917       .  S
O16          C29   1.281       .  A
O16         Co24   2.012       .  S
O17          C29   1.274       .  A
O17         Co22   1.995       .  S
O18          C28   1.292       .  A
O18         Co21   2.118       .  S
O19          C26   1.279       .  A
O19         Co24   2.007       .  S
O20          C27   1.285       .  A
O20         Co23   2.018       .  S
Co21         O25   1.978       .  S
Co22         O25   2.022       .  S
Co23         O25   1.976       .  S
Co24         O25   2.020       .  S
C26         C802   1.474       .  S
C27         C842   1.493       .  S
C28         C862   1.479       .  S
C29         C812   1.479       .  S
O30          C38   1.275       .  A
O30         Co50   1.914       .  S
O31          C39   1.278       .  A
O31         Co51   1.995       .  S
O32          C40   1.270       .  A
O32         Co52   1.994       .  S
O33          C41   1.275       .  A
O33         Co53   1.999       .  S
O34          C40   1.275       .  A
O34         Co51   2.009       .  S
O35          C41   1.280       .  A
O35         Co50   2.010       .  S
O36          C39   1.274       .  A
O36         Co53   2.004       .  S
O37          C38   1.294       .  A
O37         Co52   2.120       .  S
C38         C782   1.479       .  S
C39         C732   1.473       .  S
C40         C722   1.477       .  S
C41         C752   1.484       .  S
O42          C55   1.268       .  A
O42         Co50   1.977       .  S
O43          C56   1.277       .  A
O43         Co51   2.014       .  S
O44          C57   1.276       .  A
O44         Co52   1.927       .  S
O45          C58   1.277       .  A
O45         Co53   2.005       .  S
O46          C58   1.273       .  A
O46         Co51   1.991       .  S
O47          C57   1.292       .  A
O47         Co50   2.122       .  S
O48          C55   1.281       .  A
O48         Co53   2.015       .  S
O49          C56   1.281       .  A
O49         Co52   2.008       .  S
Co50         O54   1.980       .  S
Co51         O54   2.023       .  S
Co52         O54   1.990       .  S
Co53         O54   2.032       .  S
C55         C762   1.477       .  S
C56         C712   1.485       .  S
C57         C772   1.492       .  S
C58         C742   1.482       .  S
O59          C67   1.272       .  A
O59         Co79   1.914       .  S
O60          C68   1.277       .  A
O60         Co80   2.000       .  S
O61          C69   1.272       .  A
O61         Co81   1.997       .  S
O62          C70   1.279       .  A
O62         Co82   2.016       .  S
O63          C69   1.275       .  A
O63         Co80   1.995       .  S
O64          C70   1.281       .  A
O64         Co79   2.008       .  S
O65          C68   1.270       .  A
O65         Co82   1.992       .  S
O66          C67   1.294       .  A
O66         Co81   2.127       .  S
C67         C692   1.482       .  S
C68         C652   1.474       .  S
C69         C642   1.466       .  S
C70         C682   1.485       .  S
O71          C84   1.268       .  A
O71         Co79   1.981       .  S
O72          C85   1.274       .  A
O72         Co80   2.004       .  S
O73          C86   1.278       .  A
O73         Co81   1.922       .  S
O74          C87   1.278       .  A
O74         Co82   2.001       .  S
O75          C87   1.275       .  A
O75         Co80   1.994       .  S
O76          C86   1.294       .  A
O76         Co79   2.120       .  S
O77          C84   1.275       .  A
O77         Co82   2.008       .  S
O78          C85   1.280       .  A
O78         Co81   2.012       .  S
Co79         O83   1.975       .  S
Co80         O83   2.020       .  S
Co81         O83   1.993       .  S
Co82         O83   2.026       .  S
C84         C672   1.477       .  S
C85         C635   1.486       .  S
C86         C702   1.487       .  S
C87         C662   1.475       .  S
C88          C89   1.415       .  A
C88          C93   1.417   1_545  A
C88         C630   1.446       .  S
C89          C90   1.411   1_554  A
C89         C624   1.460       .  S
C90          C91   1.413       .  A
C90         C625   1.456       .  S
C91          C92   1.417   1_546  A
C91         C620   1.456       .  S
C92          C93   1.418       .  A
C92         C622   1.456       .  S
C93         C627   1.468       .  S
C94         C645   1.483       .  S
C94          N95   1.359   1_565  A
C94          N99   1.358       .  A
N95          C96   1.360       .  A
C96         C610   1.467       .  S
C96          N97   1.357       .  A
N97          C98   1.357       .  A
C98         C629   1.430       .  S
C98          N99   1.355   1_545  A
C100        C603   1.491       .  S
C100        N101   1.361       .  A
C100        N105   1.365       .  A
N101        C102   1.354   1_554  A
C102        C735   1.473       .  S
C102        N103   1.356       .  A
N103        C104   1.358   1_556  A
C104        C623   1.443       .  S
C104        N105   1.365       .  A
C106        C590   1.492       .  S
C106        N107   1.365       .  A
C106        N111   1.360   1_545  A
N107        C108   1.365       .  A
C108        C619   1.439       .  S
C108        N109   1.357   1_545  A
N109        C110   1.354       .  A
C110        C825   1.466       .  S
C110        N111   1.353       .  A
C112        C583   1.470       .  S
C112        N113   1.357       .  A
C112        N117   1.355       .  A
N113        C114   1.362       .  A
C114        C755   1.494       .  S
C114        N115   1.364       .  A
N115        C116   1.364       .  A
C116        C626   1.440       .  S
C116        N117   1.358       .  A
C118        C695   1.502       .  S
C118        N119   1.368       .  A
C118        N123   1.354       .  A
N119        C120   1.371       .  A
C120        C628   1.454       .  S
C120        N121   1.365       .  A
N121        C122   1.361       .  A
C122        C570   1.490       .  S
C122        N123   1.355       .  A
C124        C560   1.488       .  S
C124        N125   1.361   1_554  A
C124        N129   1.356       .  A
N125        C126   1.362       .  A
C126        C795   1.503       .  S
C126        N127   1.366       .  A
N127        C128   1.367       .  A
C128        C621   1.442       .  S
C128        N129   1.359   1_556  A
C130        C131   1.417   1_655  A
C130        C135   1.414   1_556  A
C130        C556   1.443       .  S
C131        C132   1.417       .  A
C131        C557   1.465       .  S
C132        C133   1.415       .  A
C132        C548   1.458       .  S
C133        C134   1.412   1_556  A
C133        C549   1.453   1_556  S
C134        C135   1.409   1_455  A
C134        C551   1.451       .  S
C135        C554   1.467       .  S
C136        C805   1.478       .  S
C136        N137   1.354       .  A
C136        N141   1.358   1_556  A
N137        C138   1.355   1_556  A
C138        C550   1.435       .  S
C138        N139   1.363       .  A
N139        C140   1.363       .  A
C140        C538   1.491       .  S
C140        N141   1.365       .  A
C142        C865   1.499       .  S
C142        N143   1.361       .  A
C142        N147   1.366       .  A
N143        C144   1.359       .  A
C144        C528   1.467       .  S
C144        N145   1.355       .  A
N145        C146   1.357       .  A
C146        C547   1.443       .  S
C146        N147   1.365       .  A
C148        C655   1.468       .  S
C148        N149   1.353   1_655  A
C148        N153   1.356       .  A
N149        C150   1.359       .  A
C150        C518   1.478       .  S
C150        N151   1.360       .  A
N151        C152   1.361       .  A
C152        C552   1.434       .  S
C152        N153   1.358   1_455  A
C154        C511   1.503       .  S
C154        N155   1.360       .  A
C154        N159   1.364       .  A
N155        C156   1.360       .  A
C156        C685   1.499       .  S
C156        N157   1.362       .  A
N157        C158   1.366       .  A
C158        C553   1.451       .  S
C158        N159   1.368       .  A
C160        C715   1.499       .  S
C160        N161   1.365       .  A
C160        N165   1.359       .  A
N161        C162   1.367       .  A
C162        C558   1.450   1_655  S
C162        N163   1.362   1_655  A
N163        C164   1.361       .  A
C164        C498   1.493       .  S
C164        N165   1.360   1_455  A
C166        C488   1.466       .  S
C166        N167   1.353       .  A
C166        N171   1.358       .  A
N167        C168   1.355   1_554  A
C168        C555   1.426       .  S
C168        N169   1.358       .  A
N169        C170   1.360       .  A
C170        C745   1.481       .  S
C170        N171   1.362   1_556  A
C172        C173   1.418       .  A
C172        C177   1.414       .  A
C172        C475   1.460       .  S
C173        C174   1.423       .  A
C173        C477   1.465       .  S
C174        C175   1.419       .  A
C174        C485   1.450       .  S
C175        C176   1.417       .  A
C175        C484   1.484       .  S
C176        C177   1.418       .  A
C176        C482   1.438       .  S
C177        C480   1.469       .  S
C178        C765   1.468       .  S
C178        N179   1.356       .  A
C178        N183   1.354       .  A
N179        C180   1.362       .  A
C180        C466   1.491       .  S
C180        N181   1.363       .  A
N181        C182   1.362       .  A
C182        C486   1.436       .  S
C182        N183   1.356       .  A
C184        C456   1.499       .  S
C184        N185   1.364       .  A
C184        N189   1.359       .  A
N185        C186   1.367       .  A
C186        C476   1.445       .  S
C186        N187   1.362       .  A
N187        C188   1.359       .  A
C188        C835   1.490       .  S
C188        N189   1.358       .  A
C190        C675   1.474       .  S
C190        N191   1.359       .  A
C190        N195   1.358       .  A
N191        C192   1.355       .  A
C192        C446   1.456       .  S
C192        N193   1.352       .  A
N193        C194   1.353       .  A
C194        C481   1.422       .  S
C194        N195   1.357       .  A
C196        C436   1.468       .  S
C196        N197   1.357       .  A
C196        N201   1.356       .  A
N197        C198   1.360       .  A
C198        C705   1.499       .  S
C198        N199   1.370       .  A
N199        C200   1.368       .  A
C200        C479   1.452       .  S
C200        N201   1.358       .  A
C202        C852   1.499       .  S
C202        N203   1.369       .  A
C202        N207   1.362       .  A
N203        C204   1.366       .  A
C204        C478   1.449       .  S
C204        N205   1.356       .  A
N205        C206   1.355       .  A
C206        C426   1.468       .  S
C206        N207   1.359       .  A
C208        C775   1.505       .  S
C208        N209   1.369       .  A
C208        N213   1.354       .  A
N209        C210   1.372       .  A
C210        C483   1.470       .  S
C210        N211   1.372       .  A
N211        C212   1.368       .  A
C212        C419   1.504       .  S
C212        N213   1.358       .  A
C214        C215   1.408       .  A
C214        C219   1.412   1_465  A
C214        C411   1.452       .  S
C215        C216   1.412   1_455  A
C215        C413   1.458       .  S
C216        C217   1.418       .  A
C216        C403   1.452       .  S
C217        C218   1.420   1_565  A
C217        C405   1.462       .  S
C218        C219   1.417       .  A
C218        C408   1.458       .  S
C219        C409   1.457       .  S
C220        C394   1.495       .  S
C220        N221   1.360   1_455  A
C220        N225   1.364       .  A
N221        C222   1.358       .  A
C222        C725   1.489       .  S
C222        N223   1.358       .  A
N223        C224   1.359       .  A
C224        C410   1.441       .  S
C224        N225   1.365   1_655  A
C226        C384   1.465       .  S
C226        N227   1.353   1_545  A
C226        N231   1.354       .  A
N227        C228   1.360       .  A
C228        C815   1.490       .  S
C228        N229   1.363       .  A
N229        C230   1.363       .  A
C230        C412   1.435       .  S
C230        N231   1.357   1_565  A
C232        C377   1.477       .  S
C232        N233   1.362       .  A
C232        N237   1.357       .  A
N233        C234   1.364       .  A
C234        C845   1.480       .  S
C234        N235   1.362       .  A
N235        C236   1.361       .  A
C236        C414   1.441       .  S
C236        N237   1.356       .  A
C238        C364   1.469       .  S
C238        N239   1.361       .  A
C238        N243   1.354       .  A
N239        C240   1.365       .  A
C240        C785   1.498       .  S
C240        N241   1.367       .  A
N241        C242   1.363       .  A
C242        C407   1.443       .  S
C242        N243   1.352       .  A
C244        C354   1.499       .  S
C244        N245   1.362   1_545  A
C244        N249   1.361       .  A
N245        C246   1.363       .  A
C246        C632   1.501       .  S
C246        N247   1.364       .  A
N247        C248   1.365       .  A
C248        C406   1.448       .  S
C248        N249   1.363   1_565  A
C250        C344   1.493       .  S
C250        N251   1.358   1_455  A
C250        N255   1.362       .  A
N251        C252   1.357       .  A
C252        C665   1.486       .  S
C252        N253   1.356       .  A
N253        C254   1.359       .  A
C254        C404   1.436       .  S
C254        N255   1.365   1_655  A
O256        C264   1.272       .  A
O256       Co276   1.991       .  S
O257        C265   1.274       .  A
O257       Co277   1.995       .  S
O258        C266   1.277       .  A
O258       Co278   2.033       .  S
O259        C267   1.274       .  A
O259       Co279   2.014       .  S
O260        C266   1.271       .  A
O260       Co277   1.990       .  S
O261        C267   1.273       .  A
O261       Co276   1.993       .  S
O262        C265   1.268       .  A
O262       Co279   1.997       .  S
O263        C264   1.268       .  A
O263       Co278   1.996       .  S
C264        C387   1.475       .  S
C265        C429   1.475       .  S
C266        C397   1.481       .  S
C267        C469   1.476       .  S
O268        C281   1.270       .  A
O268       Co276   2.006       .  S
O269        C282   1.274       .  A
O269       Co277   2.028       .  S
O270        C283   1.273       .  A
O270       Co278   1.996       .  S
O271        C284   1.275       .  A
O271       Co279   1.998       .  S
O272        C284   1.270       .  A
O272       Co277   1.995       .  S
O273        C283   1.274       .  A
O273       Co276   2.015       .  S
O274        C281   1.273       .  A
O274       Co279   1.990       .  S
O275        C282   1.268       .  A
O275       Co278   1.987       .  S
Co276       O280   2.102       .  S
Co277       O280   2.103       .  S
Co278       O280   2.096       .  S
Co279       O280   2.105       .  S
C281        C580   1.479       .  S
C282        C501   1.479       .  S
C283        C593   1.479       .  S
C284        C531   1.479       .  S
O285        C293   1.273       .  A
O285       Co305   2.012       .  S
O286        C294   1.274       .  A
O286       Co306   2.019       .  S
O287        C295   1.277       .  A
O287       Co307   1.999       .  S
O288        C296   1.276       .  A
O288       Co308   1.993       .  S
O289        C295   1.269       .  A
O289       Co306   1.993       .  S
O290        C296   1.269       .  A
O290       Co305   1.992       .  S
O291        C294   1.277       .  A
O291       Co308   2.013       .  S
O292        C293   1.277       .  A
O292       Co307   2.007       .  S
C293        C357   1.485       .  S
C294        C508   1.491       .  S
C295        C491   1.478       .  S
C296        C367   1.473       .  S
O297        C310   1.276       .  A
O297       Co305   2.008       .  S
O298        C311   1.272       .  A
O298       Co306   1.994       .  S
O299        C312   1.271       .  A
O299       Co307   1.998       .  S
O300        C313   1.270       .  A
O300       Co308   1.999       .  S
O301        C313   1.269       .  A
O301       Co306   1.972       .  S
O302        C312   1.275       .  A
O302       Co305   1.993       .  S
O303        C310   1.274       .  A
O303       Co308   2.016       .  S
O304        C311   1.272       .  A
O304       Co307   2.013       .  S
Co305       O309   2.101       .  S
Co306       O309   2.094       .  S
Co307       O309   2.103       .  S
Co308       O309   2.102       .  S
C310        C416   1.489       .  S
C311        C600   1.478       .  S
C312        C613   1.482       .  S
C313        C449   1.464       .  S
O314        C322   1.273       .  A
O314       Co334   1.994       .  S
O315        C323   1.272       .  A
O315       Co335   2.000       .  S
O316        C324   1.276       .  A
O316       Co336   2.018       .  S
O317        C325   1.273       .  A
O317       Co337   2.003       .  S
O318        C324   1.278       .  A
O318       Co335   2.004       .  S
O319        C325   1.281       .  A
O319       Co334   2.014       .  S
O320        C323   1.267       .  A
O320       Co337   1.994       .  S
O321        C322   1.268       .  A
O321       Co336   1.997       .  S
C322        C439   1.477       .  S
C323        C521   1.482       .  S
C324        C459   1.483       .  S
C325        C541   1.489       .  S
O326        C339   1.266       .  A
O326       Co334   1.983       .  S
O327        C340   1.265       .  A
O327       Co335   1.995       .  S
O328        C341   1.276       .  A
O328       Co336   1.994       .  S
O329        C342   1.277       .  A
O329       Co337   1.993       .  S
O330        C342   1.279       .  A
O330       Co335   2.024       .  S
O331        C341   1.276       .  A
O331       Co334   2.014       .  S
O332        C339   1.277       .  A
O332       Co337   2.013       .  S
O333        C340   1.275       .  A
O333       Co336   2.006       .  S
Co334       O338   2.099       .  S
Co335       O338   2.097       .  S
Co336       O338   2.096       .  S
Co337       O338   2.102       .  S
C339        C563   1.493       .  S
C340        C374   1.482       .  S
C341        C573   1.473       .  S
C342        C347   1.478       .  S
C343        C344   1.406       .  A
C343        C348   1.391       .  A
C343        H349   1.083       .  S
C344        C345   1.412       .  A
C345        C346   1.412       .  A
C345        H350   1.083       .  S
C346        C347   1.406       .  A
C346        H351   1.082       .  S
C347        C348   1.400       .  A
C348        H352   1.082       .  S
C353        C354   1.406       .  A
C353        C358   1.397       .  A
C353        H359   1.083       .  S
C354        C355   1.413       .  A
C355        C356   1.412       .  A
C355        H360   1.083       .  S
C356        C357   1.405       .  A
C356        H361   1.083       .  S
C357        C358   1.406       .  A
C358        H362   1.084       .  S
C363        C364   1.396       .  A
C363        C368   1.388       .  A
C363        H369   1.084       .  S
C364        C365   1.406       .  A
C365        C366   1.409       .  A
C365        H370   1.083       .  S
C366        C367   1.406       .  A
C366        H371   1.083       .  S
C367        C368   1.405       .  A
C368        H372   1.082       .  S
C373        C374   1.405       .  A
C373        C378   1.410       .  A
C373        H379   1.083       .  S
C374        C375   1.408       .  A
C375        C376   1.393       .  A
C375        H380   1.083       .  S
C376        C377   1.397       .  A
C376        H381   1.084       .  S
C377        C378   1.408       .  A
C378        H382   1.083       .  S
C383        C384   1.407       .  A
C383        C388   1.407       .  A
C383        H389   1.083       .  S
C384        C385   1.395       .  A
C385        C386   1.388       .  A
C385        H390   1.084       .  S
C386        C387   1.407       .  A
C386        H391   1.084       .  S
C387        C388   1.404       .  A
C388        H392   1.083       .  S
C393        C394   1.411       .  A
C393        C398   1.411       .  A
C393        H399   1.083       .  S
C394        C395   1.407       .  A
C395        C396   1.394       .  A
C395        H400   1.083       .  S
C396        C397   1.399       .  A
C396        H401   1.081       .  S
C397        C398   1.405       .  A
C398        H402   1.082       .  S
C403        C404   1.207       .  T
C405        C406   1.214       .  T
C407        C408   1.211       .  T
C409        C410   1.209       .  T
C411        C412   1.206       .  T
C413        C414   1.209       .  T
C415        C416   1.409       .  A
C415        C420   1.418       .  A
C415        H421   1.083       .  S
C416        C417   1.402       .  A
C417        C418   1.392       .  A
C417        H422   1.084       .  S
C418        C419   1.409       .  A
C418        H423   1.083       .  S
C419        C420   1.413       .  A
C420        H424   1.082       .  S
C425        C426   1.396       .  A
C425        C430   1.390       .  A
C425        H431   1.084       .  S
C426        C427   1.406       .  A
C427        C428   1.407       .  A
C427        H432   1.083       .  S
C428        C429   1.405       .  A
C428        H433   1.083       .  S
C429        C430   1.406       .  A
C430        H434   1.083       .  S
C435        C436   1.407       .  A
C435        C440   1.409       .  A
C435        H441   1.083       .  S
C436        C437   1.395       .  A
C437        C438   1.389       .  A
C437        H442   1.084       .  S
C438        C439   1.407       .  A
C438        H443   1.084       .  S
C439        C440   1.405       .  A
C440        H444   1.083       .  S
C445        C446   1.403       .  A
C445        C450   1.401       .  A
C445        H451   1.083       .  S
C446        C447   1.395       .  A
C447        C448   1.386       .  A
C447        H452   1.084       .  S
C448        C449   1.404       .  A
C448        H453   1.084       .  S
C449        C450   1.403       .  A
C450        H454   1.083       .  S
C455        C456   1.411       .  A
C455        C460   1.413       .  A
C455        H461   1.083       .  S
C456        C457   1.408       .  A
C457        C458   1.395       .  A
C457        H462   1.083       .  S
C458        C459   1.402       .  A
C458        H463   1.084       .  S
C459        C460   1.406       .  A
C460        H464   1.082       .  S
C465        C466   1.405       .  A
C465        C470   1.392       .  A
C465        H471   1.083       .  S
C466        C467   1.412       .  A
C467        C468   1.409       .  A
C467        H472   1.083       .  S
C468        C469   1.404       .  A
C468        H473   1.083       .  S
C469        C470   1.402       .  A
C470        H474   1.084       .  S
C475        C476   1.212       .  T
C477        C478   1.214       .  T
C479        C480   1.216       .  T
C481        C482   1.198       .  T
C483        C484   1.226       .  T
C485        C486   1.206       .  T
C487        C488   1.394       .  A
C487        C492   1.389       .  A
C487        H493   1.084       .  S
C488        C489   1.407       .  A
C489        C490   1.408       .  A
C489        H494   1.083       .  S
C490        C491   1.404       .  A
C490        H495   1.083       .  S
C491        C492   1.409       .  A
C492        H496   1.084       .  S
C497        C498   1.406       .  A
C497        C502   1.393       .  A
C497        H503   1.083       .  S
C498        C499   1.412       .  A
C499        C500   1.409       .  A
C499        H504   1.083       .  S
C500        C501   1.404       .  A
C500        H505   1.082       .  S
C501        C502   1.400       .  A
C502        H506   1.080       .  S
C507        C508   1.404       .  A
C507        C512   1.396       .  A
C507        H513   1.084       .  S
C508        C509   1.408       .  A
C509        C510   1.416       .  A
C509        H514   1.083       .  S
C510        C511   1.414       .  A
C510        H515   1.083       .  S
C511        C512   1.407       .  A
C512        H516   1.083       .  S
C517        C518   1.398       .  A
C517        C522   1.384       .  A
C517        H523   1.084       .  S
C518        C519   1.410       .  A
C519        C520   1.410       .  A
C519        H524   1.083       .  S
C520        C521   1.405       .  A
C520        H525   1.082       .  S
C521        C522   1.407       .  A
C522        H526   1.082       .  S
C527        C528   1.407       .  A
C527        C532   1.410       .  A
C527        H533   1.083       .  S
C528        C529   1.394       .  A
C529        C530   1.386       .  A
C529        H534   1.084       .  S
C530        C531   1.408       .  A
C530        H535   1.084       .  S
C531        C532   1.406       .  A
C532        H536   1.083       .  S
C537        C538   1.414       .  A
C537        C542   1.415       .  A
C537        H543   1.083       .  S
C538        C539   1.400       .  A
C539        C540   1.388       .  A
C539        H544   1.083       .  S
C540        C541   1.408       .  A
C540        H545   1.083       .  S
C541        C542   1.406       .  A
C542        H546   1.082       .  S
C547        C548   1.211       .  T
C549        C550   1.206       .  T
C551        C552   1.205       .  T
C553        C554   1.215       .  T
C555        C556   1.201       .  T
C557        C558   1.215       .  T
C559        C560   1.397       .  A
C559        C564   1.387       .  A
C559        H565   1.083       .  S
C560        C561   1.414       .  A
C561        C562   1.415       .  A
C561        H566   1.083       .  S
C562        C563   1.406       .  A
C562        H567   1.081       .  S
C563        C564   1.411       .  A
C564        H568   1.083       .  S
C569        C570   1.410       .  A
C569        C574   1.409       .  A
C569        H575   1.083       .  S
C570        C571   1.407       .  A
C571        C572   1.391       .  A
C571        H576   1.083       .  S
C572        C573   1.400       .  A
C572        H577   1.084       .  S
C573        C574   1.403       .  A
C574        H578   1.078       .  S
C579        C580   1.404       .  A
C579        C584   1.406       .  A
C579        H585   1.083       .  S
C580        C581   1.408       .  A
C581        C582   1.393       .  A
C581        H586   1.083       .  S
C582        C583   1.397       .  A
C582        H587   1.084       .  S
C583        C584   1.406       .  A
C584        H588   1.083       .  S
C589        C590   1.412       .  A
C589        C594   1.411       .  A
C589        H595   1.083       .  S
C590        C591   1.406       .  A
C591        C592   1.390       .  A
C591        H596   1.083       .  S
C592        C593   1.401       .  A
C592        H597   1.084       .  S
C593        C594   1.406       .  A
C594        H598   1.083       .  S
C599        C600   1.402       .  A
C599        C604   1.389       .  A
C599        H605   1.084       .  S
C600        C601   1.405       .  A
C601        C602   1.410       .  A
C601        H606   1.083       .  S
C602        C603   1.412       .  A
C602        H607   1.083       .  S
C603        C604   1.406       .  A
C604        H608   1.083       .  S
C609        C610   1.407       .  A
C609        C614   1.408       .  A
C609        H615   1.083       .  S
C610        C611   1.394       .  A
C611        C612   1.387       .  A
C611        H616   1.084       .  S
C612        C613   1.410       .  A
C612        H617   1.083       .  S
C613        C614   1.406       .  A
C614        H618   1.083       .  S
C619        C620   1.208       .  T
C621        C622   1.210   1_556  T
C623        C624   1.211       .  T
C625        C626   1.209       .  T
C627        C628   1.217       .  T
C629        C630   1.203       .  T
C631        C632   1.407       .  A
C631        C636   1.396       .  A
C631        H637   1.083       .  S
C632        C633   1.414       .  A
C633        C634   1.414       .  A
C633        H638   1.083       .  S
C634        C635   1.404       .  A
C634        H639   1.078       .  S
C635        C636   1.404       .  A
C636        H640   1.084       .  S
C641        C642   1.396       .  A
C641        C646   1.395       .  A
C641        H647   1.073       .  S
C642        C643   1.402       .  A
C643        C644   1.401       .  A
C643        H648   1.083       .  S
C644        C645   1.408       .  A
C644        H649   1.083       .  S
C645        C646   1.406       .  A
C646        H650   1.083       .  S
C651        C652   1.406       .  A
C651        C656   1.391       .  A
C651        H657   1.084       .  S
C652        C653   1.403       .  A
C653        C654   1.406       .  A
C653        H658   1.083       .  S
C654        C655   1.407       .  A
C654        H659   1.083       .  S
C655        C656   1.396       .  A
C656        H660   1.084       .  S
C661        C662   1.403       .  A
C661        C666   1.389       .  A
C661        H667   1.084       .  S
C662        C663   1.402       .  A
C663        C664   1.408       .  A
C663        H668   1.079       .  S
C664        C665   1.412       .  A
C664        H669   1.083       .  S
C665        C666   1.403       .  A
C666        H670   1.083       .  S
C671        C672   1.406       .  A
C671        C676   1.387       .  A
C671        H677   1.082       .  S
C672        C673   1.403       .  A
C673        C674   1.405       .  A
C673        H678   1.082       .  S
C674        C675   1.409       .  A
C674        H679   1.083       .  S
C675        C676   1.398       .  A
C676        H680   1.083       .  S
C681        C682   1.401       .  A
C681        C686   1.394       .  A
C681        H687   1.082       .  S
C682        C683   1.408       .  A
C683        C684   1.415       .  A
C683        H688   1.082       .  S
C684        C685   1.412       .  A
C684        H689   1.083       .  S
C685        C686   1.406       .  A
C686        H690   1.082       .  S
C691        C692   1.399       .  A
C691        C696   1.400       .  A
C691        H697   1.084       .  S
C692        C693   1.407       .  A
C693        C694   1.411       .  A
C693        H698   1.083       .  S
C694        C695   1.408       .  A
C694        H699   1.083       .  S
C695        C696   1.414       .  A
C696        H700   1.083       .  S
C701        C702   1.402       .  A
C701        C706   1.408       .  A
C701        H707   1.083       .  S
C702        C703   1.408       .  A
C703        C704   1.404       .  A
C703        H708   1.081       .  S
C704        C705   1.405       .  A
C704        H709   1.083       .  S
C705        C706   1.414       .  A
C706        H710   1.083       .  S
C711        C712   1.403       .  A
C711        C716   1.410       .  A
C711        H717   1.074       .  S
C712        C713   1.402       .  A
C713        C714   1.400       .  A
C713        H718   1.081       .  S
C714        C715   1.409       .  A
C714        H719   1.083       .  S
C715        C716   1.409       .  A
C716        H720   1.083       .  S
C721        C722   1.402       .  A
C721        C726   1.407       .  A
C721        H727   1.079       .  S
C722        C723   1.401       .  A
C723        C724   1.393       .  A
C723        H728   1.080       .  S
C724        C725   1.405       .  A
C724        H729   1.083       .  S
C725        C726   1.411       .  A
C726        H730   1.083       .  S
C731        C732   1.403       .  A
C731        C736   1.392       .  A
C731        H737   1.080       .  S
C732        C733   1.405       .  A
C733        C734   1.406       .  A
C733        H738   1.083       .  S
C734        C735   1.408       .  A
C734        H739   1.083       .  S
C735        C736   1.398       .  A
C736        H740   1.084       .  S
C741        C742   1.407       .  A
C741        C746   1.389       .  A
C741        H747   1.084       .  S
C742        C743   1.403       .  A
C743        C744   1.409       .  A
C743        H748   1.082       .  S
C744        C745   1.411       .  A
C744        H749   1.083       .  S
C745        C746   1.399       .  A
C746        H750   1.083       .  S
C751        C752   1.405       .  A
C751        C756   1.413       .  A
C751        H757   1.083       .  S
C752        C753   1.406       .  A
C753        C754   1.393       .  A
C753        H758   1.084       .  S
C754        C755   1.404       .  A
C754        H759   1.083       .  S
C755        C756   1.413       .  A
C756        H760   1.083       .  S
C761        C762   1.405       .  A
C761        C766   1.408       .  A
C761        H767   1.083       .  S
C762        C763   1.408       .  A
C763        C764   1.390       .  A
C763        H768   1.084       .  S
C764        C765   1.395       .  A
C764        H769   1.084       .  S
C765        C766   1.407       .  A
C766        H770   1.083       .  S
C771        C772   1.402       .  A
C771        C776   1.407       .  A
C771        H777   1.083       .  S
C772        C773   1.410       .  A
C773        C774   1.409       .  A
C773        H778   1.082       .  S
C774        C775   1.405       .  A
C774        H779   1.083       .  S
C775        C776   1.416       .  A
C776        H780   1.083       .  S
C781        C782   1.403       .  A
C781        C786   1.405       .  A
C781        H787   1.084       .  S
C782        C783   1.403       .  A
C783        C784   1.403       .  A
C783        H788   1.080       .  S
C784        C785   1.408       .  A
C784        H789   1.083       .  S
C785        C786   1.411       .  A
C786        H790   1.083       .  S
C791        C792   1.407       .  A
C791        C796   1.415       .  A
C791        H797   1.082       .  S
C792        C793   1.403       .  A
C793        C794   1.398       .  A
C793        H798   1.084       .  S
C794        C795   1.408       .  A
C794        H799   1.083       .  S
C795        C796   1.412       .  A
C796        H800   1.083       .  S
C801        C802   1.405       .  A
C801        C806   1.406       .  A
C801        H807   1.083       .  S
C802        C803   1.403       .  A
C803        C804   1.395       .  A
C803        H808   1.081       .  S
C804        C805   1.402       .  A
C804        H809   1.084       .  S
C805        C806   1.407       .  A
C806        H810   1.083       .  S
C811        C812   1.406       .  A
C811        C816   1.412       .  A
C811        H817   1.083       .  S
C812        C813   1.403       .  A
C813        C814   1.388       .  A
C813        H818   1.084       .  S
C814        C815   1.404       .  A
C814        H819   1.083       .  S
C815        C816   1.412       .  A
C816        H820   1.083       .  S
C821        C822   1.404       .  A
C821        C826   1.407       .  A
C821        H827   1.083       .  S
C822        C823   1.407       .  A
C823        C824   1.389       .  A
C823        H828   1.084       .  S
C824        C825   1.395       .  A
C824        H829   1.084       .  S
C825        C826   1.407       .  A
C826        H830   1.083       .  S
C831        C832   1.405       .  A
C831        C836   1.389       .  A
C831        H837   1.084       .  S
C832        C833   1.405       .  A
C833        C834   1.412       .  A
C833        H838   1.082       .  S
C834        C835   1.413       .  A
C834        H839   1.083       .  S
C835        C836   1.403       .  A
C836        H840   1.083       .  S
C841        C842   1.407       .  A
C841        C846   1.415       .  A
C841        H847   1.083       .  S
C842        C843   1.412       .  A
C843        C844   1.392       .  A
C843        H848   1.083       .  S
C844        C845   1.394       .  A
C844        H849   1.084       .  S
C845        C846   1.411       .  A
C846        H850   1.083       .  S
C851        C852   1.414       .  A
C851        C856   1.409       .  A
C851        H857   1.083       .  S
C852        C853   1.405       .  A
C853        C854   1.402       .  A
C853        H858   1.083       .  S
C854        C855   1.406       .  A
C854        H859   1.080       .  S
C855        C856   1.403       .  A
C856        H860   1.083       .  S
C861        C862   1.402       .  A
C861        C866   1.403       .  A
C861        H867   1.084       .  S
C862        C863   1.407       .  A
C863        C864   1.407       .  A
C863        H868   1.083       .  S
C864        C865   1.408       .  A
C864        H869   1.083       .  S
C865        C866   1.411       .  A
C866        H870   1.083       .  S
