geometry optimzed in LAMMPS
_audit_creation_date              2020-11-30 
_audit_creation_method            'lammps2cif' 
_symmetry_space_group_name_H-M    'P1' 
_symmetry_Int_Tables_number       1 
_symmetry_cell_setting            triclinic 
loop_ 
_symmetry_equiv_pos_as_xyz 
  x,y,z 
_cell_length_a                    27.05343495 
_cell_length_b                    48.52098868500793 
_cell_length_c                    43.678651387526166 
_cell_angle_alpha                 90.00865172485673 
_cell_angle_beta                  116.21154452678435 
_cell_angle_gamma                 89.91201111115501 
loop_ 
_atom_site_label 
_atom_site_type_symbol 
_atom_site_fract_x 
_atom_site_fract_y 
_atom_site_fract_z 
_atom_site_charge 
C1          C  0.68174012  0.31609741  0.06113531     0.04100
C2          C  0.71469250  0.31565118  0.04379716    -0.12100
C3          C  0.76174076  0.29887595  0.05523531     0.01600
C4          C  0.77686638  0.28314614  0.08492920    -0.10600
C5          C  0.74460244  0.28344625  0.10291457     0.04100
C6          C  0.69625332  0.29950571  0.09024706    -0.10000
H7          H  0.70392976  0.32856821  0.02152180     0.09700
H8          H  0.81308766  0.27020949  0.09322836     0.07200
H9          H  0.67114332  0.29997256  0.10389398     0.07000
C10         C  0.89166671  0.32559340  0.47738728     0.04100
C11         C  0.87768577  0.30932382  0.44809927    -0.12100
C12         C  0.82943644  0.29331440  0.43499371     0.01600
C13         C  0.79647298  0.29284613  0.45250545    -0.10600
C14         C  0.81109970  0.30821059  0.48235786     0.04100
C15         C  0.86113781  0.31597339  0.99898691    -0.10000
H16         H  0.90322585  0.30988443  0.43474675     0.09700
H17         H  0.76031298  0.27988697  0.44384684     0.07200
H18         H  0.87274439  0.32738825  0.02247759     0.07000
C19         C  0.68849932  0.21483260  0.31562243     0.04100
C20         C  0.70201047  0.23372331  0.34236981    -0.12100
C21         C  0.74966183  0.25000963  0.35306403     0.01600
C22         C  0.78222059  0.24822011  0.33533893    -0.10600
C23         C  0.76753300  0.23031322  0.30746962     0.04100
C24         C  0.72127921  0.21326304  0.29820421    -0.10000
H25         H  0.67693811  0.23472348  0.35602791     0.09700
H26         H  0.81804491  0.26123076  0.34234741     0.07200
H27         H  0.71101986  0.19856709  0.27761051     0.07000
C28         C  0.89490509  0.21203039  0.22983361     0.04100
C29         C  0.86263294  0.21182281  0.24765059    -0.12100
C30         C  0.81369854  0.22720687  0.23585940     0.01600
C31         C  0.79609034  0.24216670  0.20534846    -0.10600
C32         C  0.82810519  0.24273694  0.18719703     0.04100
C33         C  0.87806086  0.22799176  0.20011097    -0.10000
H34         H  0.87536123  0.19945522  0.27055328     0.09700
H35         H  0.75843432  0.25402590  0.19670427     0.07200
H36         H  0.90279008  0.22803981  0.18621387     0.07000
N37         N  0.98983646  0.96183684  0.27238611    -0.26300
N38         N  0.03698928  0.95465183  0.27255847    -0.34200
C39         C  0.06475376  0.97759315  0.27237635     0.02000
C40         C  0.03321502  0.00020203  0.27216491     0.08000
C41         C  0.98596043  0.98942971  0.27209252    -0.05100
H42         H  0.10541515  0.97777754  0.27336030     0.08700
H43         H  0.95192991  0.00073511  0.27273242     0.09900
Cu44       Cu  0.06133804  0.91374642  0.27703878     0.44200
Cu45       Cu  0.93652771  0.93343854  0.27598716     0.42000
Cu46       Cu  0.97952802  0.86277089  0.29942756     0.43900
N47         N  0.08413628  0.87319495  0.29134494    -0.33700
N48         N  0.05715341  0.85538270  0.30136873    -0.28000
C49         C  0.08837534  0.83255850  0.31316036    -0.04100
C50         C  0.13665012  0.83607490  0.30984439     0.08100
C51         C  0.13230438  0.86199854  0.29584183     0.01900
H52         H  0.07711714  0.81488412  0.32381318     0.09600
H53         H  0.16336505  0.87265555  0.29112024     0.08700
N54         N  0.90335879  0.87818817  0.29317337    -0.35200
N55         N  0.88935170  0.90417382  0.28455150    -0.27400
C56         C  0.84104893  0.90939327  0.28483280    -0.02600
C57         C  0.82287815  0.88564912  0.29381079     0.06000
C58         C  0.86315285  0.86602486  0.29882416     0.04100
H59         H  0.82150033  0.92944897  0.28001190     0.09200
H60         H  0.86468315  0.84511298  0.30778020     0.08000
N61         N  0.59568269  0.96109909  0.30267987    -0.26300
N62         N  0.54275905  0.95550257  0.29082007    -0.34200
C63         C  0.51399305  0.97921899  0.28209251     0.02000
C64         C  0.55102120  0.00069574  0.28882430     0.08000
C65         C  0.60242387  0.98845910  0.30196331    -0.05100
H66         H  0.46950603  0.98059477  0.27045264     0.08700
H67         H  0.64156195  0.99850346  0.30881342     0.09900
Cu68       Cu  0.51484732  0.91529040  0.28341009     0.44200
Cu69       Cu  0.65370733  0.93063438  0.31282232     0.42000
Cu70       Cu  0.60970162  0.86189165  0.27859657     0.43900
N71         N  0.49485094  0.87431856  0.27120940    -0.33700
N72         N  0.52693323  0.85536163  0.26733240    -0.28000
C73         C  0.49762012  0.83193112  0.25610385    -0.04100
C74         C  0.44529366  0.83637931  0.25352442     0.08100
C75         C  0.44520322  0.86337245  0.26337267     0.01900
H76         H  0.51335992  0.81302626  0.25058251     0.09600
H77         H  0.41085193  0.87459407  0.26371113     0.08700
N78         N  0.69013946  0.87646607  0.29481254    -0.35200
N79         N  0.70495113  0.90125789  0.30834532    -0.27400
C80         C  0.75595115  0.90671559  0.31250830    -0.02600
C81         C  0.77495097  0.88445531  0.30120716     0.06000
C82         C  0.73234446  0.86540594  0.29025535     0.04100
H83         H  0.77586203  0.92653953  0.32037156     0.09200
H84         H  0.73018199  0.84623865  0.27707489     0.08000
N85         N  0.49465066  0.06973775  0.26477357    -0.26300
N86         N  0.54783263  0.07517362  0.27909003    -0.34200
C87         C  0.57613575  0.05145954  0.28931625     0.02000
C88         C  0.53862425  0.03009304  0.28120544     0.08000
C89         C  0.48726685  0.04240466  0.26562038    -0.05100
H90         H  0.62056014  0.05000996  0.30264076     0.08700
H91         H  0.44757549  0.03240891  0.25654094     0.09900
Cu92       Cu  0.57629176  0.11519570  0.28661558     0.44200
Cu93       Cu  0.43696426  0.10084861  0.24967233     0.42000
Cu94       Cu  0.47818423  0.17027019  0.28294606     0.43900
N95         N  0.59520340  0.15655289  0.29516145    -0.33700
N96         N  0.56179074  0.17633048  0.29573096    -0.28000
C97         C  0.58989044  0.20030570  0.30358089    -0.04100
C98         C  0.64275327  0.19526376  0.30736314     0.08100
C99         C  0.64451083  0.16739462  0.30185462     0.01900
H100        H  0.57272791  0.22002360  0.30546759     0.09600
H101        H  0.67943678  0.15569155  0.30309543     0.08700
N102        N  0.39693142  0.15585036  0.26325810    -0.35200
N103        N  0.38343645  0.13111210  0.24932570    -0.27400
C104        C  0.33094524  0.12585320  0.24194698    -0.02600
C105        C  0.30955407  0.14800422  0.25186986     0.06000
C106        C  0.35236352  0.16696074  0.26510460     0.04100
H107        H  0.31149074  0.10604916  0.23315620     0.09200
H108        H  0.35270503  0.18605947  0.27798446     0.08000
N109        N  0.08961998  0.06809993  0.27217201    -0.26300
N110        N  0.04286401  0.07501941  0.27267973    -0.34200
C111        C  0.01583659  0.05195893  0.27331914     0.02000
C112        C  0.04746585  0.02950604  0.27318344     0.08000
C113        C  0.09409900  0.04050569  0.27257600    -0.05100
H114        H  0.97559214  0.05158712  0.27292953     0.08700
H115        H  0.12798675  0.02936319  0.27151194     0.09900
Cu116      Cu  0.01866012  0.11586489  0.26901832     0.44200
Cu117      Cu  0.14099426  0.09729885  0.26792605     0.42000
Cu118      Cu  0.10371081  0.16985962  0.25334574     0.43900
N119        N  0.99654835  0.15683245  0.25749055    -0.33700
N120        N  0.02467320  0.17588527  0.25009444    -0.28000
C121        C  0.99337945  0.19883729  0.23963003    -0.04100
C122        C  0.94394670  0.19403586  0.24111706     0.08100
C123        C  0.94766290  0.16728749  0.25264290     0.01900
H124        H  0.00543199  0.21750846  0.23118725     0.09600
H125        H  0.91584816  0.15568733  0.25552908     0.08700
N126        N  0.17844088  0.15397175  0.25730683    -0.35200
N127        N  0.18935000  0.12730391  0.26192405    -0.27400
C128        C  0.23728466  0.12202879  0.26126832    -0.02600
C129        C  0.25873940  0.14637515  0.25628871     0.06000
C130        C  0.22063104  0.16649827  0.25406055     0.04100
H131        H  0.25496415  0.10164494  0.26391508     0.09200
H132        H  0.22234880  0.18824082  0.24911697     0.08000
C133        C  0.19680699  0.70552927  0.08365145     0.04100
C134        C  0.22863902  0.70316800  0.06564399    -0.12100
C135        C  0.27057763  0.72225697  0.07070582     0.01600
C136        C  0.28329288  0.74270018  0.09603781    -0.10600
C137        C  0.25325476  0.74434307  0.11544934     0.04100
C138        C  0.20869922  0.72645767  0.10794143    -0.10000
H139        H  0.21974685  0.68689148  0.04695710     0.09700
H140        H  0.31681024  0.75688362  0.10087989     0.07200
H141        H  0.18520507  0.72776086  0.12258305     0.07000
C142        C  0.40329843  0.72081298  0.49585631     0.04100
C143        C  0.38730690  0.73736371  0.46672526    -0.12100
C144        C  0.33780517  0.75235172  0.45401828     0.01600
C145        C  0.30568764  0.75180894  0.47216393    -0.10600
C146        C  0.34181103  0.73804022  0.01271212     0.04100
C147        C  0.38477555  0.71884344  0.02025029    -0.10000
H148        H  0.41189390  0.73729606  0.45272707     0.09700
H149        H  0.26819306  0.76382254  0.46347623     0.07200
H150        H  0.39718263  0.70551805  0.04231508     0.07000
C151        C  0.39802117  0.81735502  0.24166815     0.04100
C152        C  0.38348938  0.80162235  0.21198106    -0.12100
C153        C  0.33442847  0.78627124  0.19829623     0.01600
C154        C  0.30150230  0.78566077  0.21597705    -0.10600
C155        C  0.31699154  0.80036380  0.24656234     0.04100
C156        C  0.36475154  0.81659869  0.25880807    -0.10000
H157        H  0.40904171  0.80237258  0.19862828     0.09700
H158        H  0.26463603  0.77317894  0.20671942     0.07200
H159        H  0.37574561  0.82905907  0.28147525     0.07000
C160        C  0.18556425  0.81791221  0.32209948     0.04100
C161        C  0.20241677  0.80339378  0.35287584    -0.12100
C162        C  0.25232447  0.78869953  0.36681527     0.01600
C163        C  0.28428241  0.78767041  0.34857555    -0.10600
C164        C  0.26676497  0.80117117  0.31701114     0.04100
C165        C  0.21775979  0.81661034  0.30423306    -0.10000
H166        H  0.17786377  0.80456037  0.36684687     0.09700
H167        H  0.32208313  0.77583979  0.35822198     0.07200
H168        H  0.20509441  0.82805732  0.28066261     0.07000
N169        N  0.03004684  0.55784638  0.08579894    -0.26300
N170        N  0.07629651  0.56366496  0.08396959    -0.34200
C171        C  0.10199488  0.53994896  0.08373077     0.02000
C172        C  0.06966799  0.51823745  0.08493755     0.08000
C173        C  0.02436207  0.53035319  0.08621408    -0.05100
H174        H  0.13979673  0.53860521  0.08103359     0.08700
H175        H  0.98893081  0.52000977  0.08617903     0.09900
Cu176      Cu  0.09700965  0.60389998  0.07828752     0.44200
Cu177      Cu  0.97457824  0.58789319  0.08328750     0.42000
Cu178      Cu  0.99759909  0.65965357  0.07179431     0.43900
N179        N  0.11049905  0.64582727  0.07590911    -0.33700
N180        N  0.07685839  0.66582490  0.07563013    -0.28000
C181        C  0.10194843  0.69021037  0.07770535    -0.04100
C182        C  0.15308621  0.68530536  0.07861937     0.08100
C183        C  0.15695336  0.65699309  0.07734484     0.01900
H184        H  0.08437858  0.71006400  0.07863699     0.09600
H185        H  0.19209400  0.64527077  0.07900441     0.08700
N186        N  0.92102075  0.64426807  0.06484650    -0.35200
N187        N  0.91470173  0.61787830  0.06973806    -0.27400
C188        C  0.86137212  0.61260357  0.05998216    -0.02600
C189        C  0.83181236  0.63667532  0.04828508     0.06000
C190        C  0.87091632  0.65659398  0.05193302     0.04100
H191        H  0.84506179  0.59224875  0.05990034     0.09200
H192        H  0.86315329  0.67786578  0.04374661     0.08000
N193        N  0.56807080  0.56634815  0.99974098    -0.26300
N194        N  0.52655636  0.58041786  0.50278182    -0.34200
C195        C  0.50085106  0.55674208  0.50300468     0.02000
C196        C  0.52905998  0.53520556  0.49689373     0.08000
C197        C  0.57051333  0.53882414  0.99739643    -0.05100
H198        H  0.46518547  0.55526694  0.50801254     0.08700
H199        H  0.60183973  0.52789668  0.99317137     0.09100
Cu200      Cu  0.50992777  0.62060346  0.51170776     0.44200
Cu201      Cu  0.62237362  0.59510544  0.99788862     0.42000
Cu202      Cu  0.61099109  0.66699303  0.01438252     0.43900
N203        N  0.49619523  0.66266701  0.51241614    -0.33700
N204        N  0.52793274  0.68255265  0.51008387    -0.28000
C205        C  0.50080685  0.70670644  0.50534799    -0.04100
C206        C  0.45043337  0.70179788  0.50547565     0.08100
C207        C  0.44911606  0.67373457  0.51010884     0.01900
H208        H  0.51584154  0.72625866  0.50100424     0.09600
H209        H  0.41458335  0.66190581  0.50914075     0.08700
N210        N  0.68396053  0.64918180  0.01767293    -0.35200
N211        N  0.68554272  0.62288201  0.01026269    -0.27400
C212        C  0.73742303  0.61556384  0.01814891    -0.02600
C213        C  0.77107887  0.63812184  0.03137783     0.06000
C214        C  0.73585752  0.65935807  0.03048509     0.04100
H215        H  0.75012413  0.59467696  0.01652750     0.09200
H216        H  0.74758040  0.67988195  0.04080184     0.08000
N217        N  0.11496448  0.44964066  0.07532368    -0.26300
N218        N  0.06250840  0.44479563  0.06658778    -0.34200
C219        C  0.03869405  0.46814278  0.07022189     0.02000
C220        C  0.07828566  0.48870226  0.08135904     0.08000
C221        C  0.12614223  0.47622581  0.08430305    -0.05100
H222        H  0.99524410  0.47038693  0.06329605     0.08700
H223        H  0.16558281  0.48594570  0.09114506     0.09900
Cu224      Cu  0.02743405  0.40728024  0.04558591     0.44200
Cu225      Cu  0.16541846  0.42007214  0.07025188     0.42000
Cu226      Cu  0.11118142  0.35606960  0.02437256     0.43900
N227        N  0.99958070  0.36974563  0.02144122    -0.33700
N228        N  0.02799751  0.35173500  0.01271603    -0.28000
C229        C  0.99484761  0.33036903  0.99659766    -0.04100
C230        C  0.94371925  0.33508083  0.99570929     0.08100
C231        C  0.94835322  0.36016844  0.01163073     0.01900
H232        H  0.00747161  0.31242350  0.98710180     0.09600
H233        H  0.91657305  0.37088712  0.01561504     0.08700
N234        N  0.19238153  0.36898984  0.04054384    -0.35200
N235        N  0.21082476  0.39219274  0.05768687    -0.27400
C236        C  0.26112867  0.39751246  0.06051087    -0.02600
C237        C  0.27577725  0.37678471  0.04457623     0.06000
C238        C  0.23137918  0.35882242  0.03221115     0.04100
H239        H  0.28331188  0.41647261  0.07070394     0.09200
H240        H  0.22557071  0.34137737  0.01552688     0.08000
N241        N  0.47591872  0.46619784  0.49491870    -0.26300
N242        N  0.52651494  0.46019952  0.49993179    -0.34200
C243        C  0.55298521  0.48380099  0.50044721     0.02000
C244        C  0.51720129  0.50558214  0.49600063     0.08000
C245        C  0.46876807  0.49365399  0.49261903    -0.05100
H246        H  0.59569819  0.48507889  0.50521966     0.08700
H247        H  0.43142994  0.50411954  0.48938824     0.09900
Cu248      Cu  0.55652473  0.42006922  0.51002669     0.44200
Cu249      Cu  0.42144081  0.43654192  0.49428384     0.42000
Cu250      Cu  0.47323577  0.35934148  0.03374643     0.43900
N251        N  0.58040500  0.37982211  0.52641908    -0.33700
N252        N  0.55253089  0.35328502  0.03842876    -0.28000
C253        C  0.58380528  0.33052801  0.05039723    -0.04100
C254        C  0.63370926  0.33484280  0.04950543     0.08100
C255        C  0.63019246  0.36121893  0.03662803     0.01900
H256        H  0.57113306  0.31221408  0.05914739     0.09600
H257        H  0.66195695  0.37945919  0.52966393     0.08700
N258        N  0.39780253  0.37347157  0.02955921    -0.35200
N259        N  0.37359949  0.40655441  0.50090852    -0.27400
C260        C  0.32317187  0.41100168  0.49838606    -0.02600
C261        C  0.32015880  0.37929656  0.03413112     0.06000
C262        C  0.36032467  0.36035227  0.03691208     0.04100
H263        H  0.30187780  0.43059699  0.49154532     0.09200
H264        H  0.36404561  0.33928988  0.04580508     0.08000
C265        C  0.30202651  0.80035882  0.29882893    -0.15500
C266        C  0.28133981  0.79977959  0.26450697    -0.30700
H267        H  0.34635654  0.79930293  0.31422233     0.13500
H268        H  0.23713263  0.79794123  0.24912661     0.14100
C269        C  0.32135570  0.76794806  0.42157203    -0.15500
C270        C  0.26880582  0.77430292  0.40006972    -0.30700
H271        H  0.35402717  0.77340041  0.41470709     0.13500
H272        H  0.23608480  0.76899086  0.40694797     0.14100
C273        C  0.26761817  0.76359920  0.14461477    -0.15500
C274        C  0.31977713  0.77045151  0.16615473    -0.30700
H275        H  0.23414358  0.77025244  0.15019096     0.13500
H276        H  0.35323966  0.76390908  0.16046775     0.14100
C277        C  0.30203648  0.71947579  0.05024214    -0.15500
C278        C  0.31346737  0.74109442  0.03507872    -0.30700
H279        H  0.31161562  0.69877467  0.04499664     0.13500
H280        H  0.29844786  0.76141170  0.03735692     0.14100
C281        C  0.77958631  0.22732000  0.25464261    -0.15500
C282        C  0.80189011  0.22911226  0.28887584    -0.30700
H283        H  0.73504254  0.22784607  0.23988561     0.13500
H284        H  0.84617595  0.23163483  0.30341181     0.14100
C285        C  0.81551650  0.27666765  0.40365198    -0.15500
C286        C  0.76378249  0.26846422  0.38288675    -0.30700
H287        H  0.84927756  0.27090095  0.39791046     0.13500
H288        H  0.73006935  0.27450482  0.38853118     0.14100
C289        C  0.75982916  0.26712938  0.13474709    -0.15500
C290        C  0.81186630  0.25894114  0.15521944    -0.30700
H291        H  0.72687389  0.26223595  0.14156807     0.13500
H292        H  0.84472143  0.26407323  0.14840310     0.14100
C293        C  0.77666299  0.29945161  0.00325163    -0.15500
C294        C  0.79730430  0.29861398  0.03746044    -0.30700
H295        H  0.73112344  0.30586701  0.48447457     0.13500
H296        H  0.84150573  0.29661945  0.05289996     0.14100
C297        C  0.67981947  0.32352633  0.55741663     0.04100
C298        C  0.71269939  0.32320140  0.54003932    -0.12100
C299        C  0.76055346  0.30703776  0.55184489     0.01600
C300        C  0.77635212  0.29160055  0.58177842    -0.10600
C301        C  0.74396376  0.29159144  0.59966196     0.04100
C302        C  0.69488257  0.30713887  0.58673520    -0.10000
H303        H  0.70146778  0.33592793  0.51755644     0.09700
H304        H  0.81322426  0.27913307  0.59035248     0.07200
H305        H  0.66978366  0.30748798  0.60039038     0.07000
C306        C  0.89458219  0.31724157  0.98202251     0.04100
C307        C  0.87925634  0.30264481  0.95144318    -0.12100
C308        C  0.82946024  0.28787981  0.93697072     0.01600
C309        C  0.79645910  0.28677279  0.95447335    -0.10600
C310        C  0.81251313  0.30044242  0.98566093     0.04100
C311        C  0.85829328  0.32479947  0.49443965    -0.10000
H312        H  0.90488437  0.30374334  0.93816508     0.09700
H313        H  0.75901029  0.27471755  0.94459299     0.07200
H314        H  0.86878575  0.33728796  0.51701793     0.07000
C315        C  0.67998645  0.22102815  0.80710904     0.04100
C316        C  0.69533741  0.23731718  0.83639800    -0.12100
C317        C  0.74516603  0.25202255  0.84977351     0.01600
C318        C  0.77820775  0.25144805  0.83230243    -0.10600
C319        C  0.76198257  0.23619615  0.80213955     0.04100
C320        C  0.71332545  0.22063823  0.79002084    -0.10000
H321        H  0.67000942  0.23730677  0.84991210     0.09700
H322        H  0.81586064  0.26331353  0.84143547     0.07200
H323        H  0.70184188  0.20779966  0.76761090     0.07000
C324        C  0.89162826  0.21891955  0.72578747     0.04100
C325        C  0.85907436  0.21930466  0.74341724    -0.12100
C326        C  0.81173704  0.23586524  0.73209002     0.01600
C327        C  0.79599837  0.25148218  0.70226658    -0.10600
C328        C  0.82798657  0.25133774  0.68412562     0.04100
C329        C  0.87666800  0.23549861  0.69666047    -0.10000
H330        H  0.87022188  0.20637403  0.76572719     0.09700
H331        H  0.75951315  0.26422948  0.69395806     0.07200
H332        H  0.90150407  0.23505420  0.68283053     0.07000
N333        N  0.99919609  0.96686317  0.77490139    -0.26300
N334        N  0.05220836  0.96136147  0.78676020    -0.34200
C335        C  0.08024979  0.98525704  0.79300463     0.02000
C336        C  0.04272383  0.00677611  0.78467591     0.08000
C337        C  0.99172438  0.99431624  0.77322795    -0.05100
H338        H  0.12460129  0.98682326  0.80349243     0.08700
H339        H  0.95224410  0.00439998  0.76518611     0.09900
Cu340      Cu  0.08095083  0.92105136  0.79576713     0.44200
Cu341      Cu  0.94183039  0.93619760  0.76589655     0.42000
Cu342      Cu  0.98664118  0.86688812  0.79928124     0.43900
N343        N  0.10155580  0.87981141  0.80724188    -0.33700
N344        N  0.06957498  0.86054806  0.81055958    -0.28000
C345        C  0.09888412  0.83694985  0.82087514    -0.04100
C346        C  0.15113401  0.84159175  0.82341528     0.08100
C347        C  0.15111645  0.86887445  0.81449924     0.01900
H348        H  0.08311603  0.81777400  0.82566968     0.09600
H349        H  0.18530492  0.88022805  0.81424819     0.08700
N350        N  0.90579146  0.88123849  0.78253064    -0.35200
N351        N  0.89076000  0.90612339  0.76924767    -0.27400
C352        C  0.83916289  0.91113087  0.76428866    -0.02600
C353        C  0.82004107  0.88853968  0.77493293     0.06000
C354        C  0.86320857  0.86973198  0.78623710     0.04100
H355        H  0.81881110  0.93088442  0.75637044     0.09200
H356        H  0.86536140  0.85038823  0.79907564     0.08000
N357        N  0.59844679  0.96745714  0.79130484    -0.26300
N358        N  0.54843049  0.96139551  0.78721867    -0.34200
C359        C  0.51962798  0.98491074  0.78263127     0.02000
C360        C  0.55353232  0.00668751  0.78380630     0.08000
C361        C  0.60324309  0.99486690  0.78942304    -0.05100
H362        H  0.47679745  0.98597884  0.77766558     0.08700
H363        H  0.63956807  0.00524319  0.79085460     0.09900
Cu364      Cu  0.52303313  0.92081451  0.78439517     0.44200
Cu365      Cu  0.65399990  0.93751683  0.79476133     0.42000
Cu366      Cu  0.61271470  0.86664947  0.77326801     0.43900
N367        N  0.50325491  0.87941236  0.77484603    -0.33700
N368        N  0.53307744  0.86034794  0.76887718    -0.28000
C369        C  0.50347081  0.83687184  0.75952579    -0.04100
C370        C  0.45339043  0.84131299  0.76030906     0.08100
C371        C  0.45489856  0.86842822  0.77020839     0.01900
H372        H  0.51715906  0.81804434  0.75237064     0.09600
H373        H  0.42197323  0.87983165  0.77212435     0.08700
N374        N  0.69001023  0.88172540  0.78106360    -0.35200
N375        N  0.70331855  0.90778768  0.78940027    -0.27400
C376        C  0.75208291  0.91309907  0.78993319    -0.02600
C377        C  0.77144231  0.88936973  0.78173354     0.06000
C378        C  0.73130643  0.86959486  0.77639958     0.04100
H379        H  0.77085587  0.93330657  0.79439046     0.09200
H380        H  0.73052415  0.84865897  0.76769295     0.08000
N381        N  0.49340309  0.07507188  0.77069483    -0.26300
N382        N  0.54304827  0.08130479  0.77423882    -0.34200
C383        C  0.57228373  0.05789591  0.77896325     0.02000
C384        C  0.53892724  0.03602587  0.77837465     0.08000
C385        C  0.48921977  0.04768660  0.77300077    -0.05100
H386        H  0.61491127  0.05695828  0.78343749     0.08700
H387        H  0.45323200  0.03721263  0.77192974     0.09900
Cu388      Cu  0.56663523  0.12203274  0.77554786     0.44200
Cu389      Cu  0.43712421  0.10467318  0.76706615     0.42000
Cu390      Cu  0.47406307  0.17625888  0.78406286     0.43900
N391        N  0.58393583  0.16376948  0.78302404    -0.33700
N392        N  0.55325948  0.18290070  0.78807108    -0.28000
C393        C  0.58200842  0.20665961  0.79661277    -0.04100
C394        C  0.63237620  0.20228058  0.79623680     0.08100
C395        C  0.63194981  0.17496350  0.78742653     0.01900
H396        H  0.56767450  0.22557702  0.80312869     0.09600
H397        H  0.66552461  0.16355807  0.78631400     0.08700
N398        N  0.39822594  0.16054387  0.77800919    -0.35200
N399        N  0.38650916  0.13411228  0.77160816    -0.27400
C400        C  0.33862318  0.12855828  0.77222265    -0.02600
C401        C  0.31822214  0.15254030  0.77907844     0.06000
C402        C  0.35676783  0.17267914  0.78245348     0.04100
H403        H  0.32116233  0.10812922  0.76939762     0.09200
H404        H  0.35648187  0.19396168  0.78975602     0.08000
N405        N  0.09691734  0.07669471  0.79627284    -0.26300
N406        N  0.04364915  0.08189286  0.78352064    -0.34200
C407        C  0.01623110  0.05790305  0.77827309     0.02000
C408        C  0.05428432  0.03658437  0.78806525     0.08000
C409        C  0.10508923  0.04927395  0.79945329    -0.05100
H410        H  0.97184159  0.05610221  0.76690765     0.08700
H411        H  0.14481061  0.03933314  0.80801889     0.09900
Cu412      Cu  0.01260811  0.12154219  0.77052034     0.44200
Cu413      Cu  0.15342383  0.10742316  0.80298738     0.42000
Cu414      Cu  0.10374508  0.17448886  0.76242536     0.43900
N415        N  0.98942431  0.16193915  0.75522071    -0.33700
N416        N  0.02072850  0.18084373  0.75057784    -0.28000
C417        C  0.99079585  0.20410451  0.73886960    -0.04100
C418        C  0.93873343  0.19964778  0.73671104     0.08100
C419        C  0.93954728  0.17276811  0.74732088     0.01900
H420        H  0.00616433  0.22301734  0.73314904     0.09600
H421        H  0.90590892  0.16167441  0.74867488     0.08700
N422        N  0.18499980  0.16076989  0.77971792    -0.35200
N423        N  0.20192772  0.13679596  0.79534165    -0.27400
C424        C  0.25334279  0.13189880  0.79979466    -0.02600
C425        C  0.27030327  0.15366870  0.78650775     0.06000
C426        C  0.22609744  0.17182118  0.77406455     0.04100
H427        H  0.27508826  0.11268988  0.80940504     0.09200
H428        H  0.22220538  0.19027062  0.75926741     0.08000
C429        C  0.19441392  0.71946185  0.58020379     0.04100
C430        C  0.22686795  0.71945937  0.56247933    -0.12100
C431        C  0.27443377  0.73585811  0.57363863     0.01600
C432        C  0.29050520  0.75147803  0.60363429    -0.10600
C433        C  0.25828503  0.75167363  0.62172580     0.04100
C434        C  0.20955348  0.73611345  0.60918619    -0.10000
H435        H  0.21548966  0.70634493  0.54031058     0.09700
H436        H  0.32728956  0.76395672  0.61211208     0.07200
H437        H  0.18479251  0.73583339  0.62307456     0.07000
C438        C  0.41349540  0.71751483  0.00020896     0.04100
C439        C  0.39805474  0.73498934  0.97187532    -0.12100
C440        C  0.35322656  0.75314659  0.96266078     0.01600
C441        C  0.32634346  0.75514170  0.98386405    -0.10600
C442        C  0.32262909  0.73633606  0.50236959     0.04100
C443        C  0.37096443  0.72041810  0.51364632    -0.10000
H444        H  0.41937977  0.73348226  0.95595766     0.09700
H445        H  0.29332176  0.76989929  0.97802779     0.07200
H446        H  0.38293660  0.70730184  0.53587364     0.07000
C447        C  0.40559467  0.82259436  0.74940107     0.04100
C448        C  0.39002595  0.80649391  0.71992358    -0.12100
C449        C  0.34094408  0.79118084  0.70695725     0.01600
C450        C  0.30869310  0.79110577  0.72503690    -0.10600
C451        C  0.32514943  0.80615071  0.75547406     0.04100
C452        C  0.37310466  0.82228291  0.76710038    -0.10000
H453        H  0.41487866  0.80691256  0.70610773     0.09700
H454        H  0.27165279  0.77879572  0.71625820     0.07200
H455        H  0.38485251  0.83489594  0.78971590     0.07000
C456        C  0.19840028  0.82245793  0.83423533     0.04100
C457        C  0.21574161  0.80724348  0.86459829    -0.12100
C458        C  0.26541143  0.79220001  0.87751474     0.01600
C459        C  0.29598198  0.79142643  0.85835506    -0.10600
C460        C  0.27788950  0.80568419  0.82724662     0.04100
C461        C  0.22950164  0.82149878  0.81568694    -0.10000
H462        H  0.19198945  0.80829022  0.87908743     0.09700
H463        H  0.33334241  0.77936101  0.86696076     0.07200
H464        H  0.21656720  0.83365711  0.79260783     0.07000
N465        N  0.01980038  0.57203873  0.56194957    -0.26300
N466        N  0.06528510  0.57830282  0.55945353    -0.34200
C467        C  0.09057993  0.55481648  0.55784987     0.02000
C468        C  0.05868078  0.53284857  0.55896724     0.08000
C469        C  0.01411842  0.54454507  0.56151716    -0.05100
H470        H  0.12835697  0.55383565  0.55507826     0.08700
H471        H  0.97960093  0.53394413  0.56237561     0.09900
Cu472      Cu  0.08611173  0.61905485  0.55685031     0.44200
Cu473      Cu  0.96678551  0.60167636  0.56337238     0.42000
Cu474      Cu  0.98969491  0.67421842  0.55902067     0.43900
N475        N  0.10120980  0.66114038  0.56030721    -0.33700
N476        N  0.06923331  0.68064826  0.56330789    -0.28000
C477        C  0.09677157  0.70475501  0.56989645    -0.04100
C478        C  0.14765678  0.70022299  0.57028934     0.08100
C479        C  0.14884673  0.67243018  0.56402555     0.01900
H480        H  0.08130257  0.72405477  0.57464043     0.09600
H481        H  0.18329407  0.66088155  0.56430882     0.08700
N482        N  0.91394990  0.65810461  0.55276567    -0.35200
N483        N  0.90832795  0.63130565  0.55551258    -0.27400
C484        C  0.85583736  0.62549940  0.54743983    -0.02600
C485        C  0.82580609  0.64960938  0.53886763     0.06000
C486        C  0.86396367  0.67016996  0.54278455     0.04100
H487        H  0.84029761  0.60479481  0.54619534     0.09200
H488        H  0.85546943  0.69180487  0.53675882     0.08000
N489        N  0.56868199  0.57474902  0.49629659    -0.26300
N490        N  0.52618523  0.57301974  0.00607603    -0.34200
C491        C  0.50009895  0.54976175  0.00748715     0.02000
C492        C  0.52763008  0.52749380  0.00214720     0.08000
C493        C  0.57193738  0.54737605  0.49288901    -0.05100
H494        H  0.46471591  0.54907660  0.01285477     0.08700
H495        H  0.60332438  0.53714644  0.48802734     0.09100
Cu496      Cu  0.51045319  0.61391669  0.01345672     0.44200
Cu497      Cu  0.62032941  0.60498112  0.49443814     0.42000
Cu498      Cu  0.60575380  0.67640490  0.51163842     0.43900
N499        N  0.49919102  0.65641012  0.01365561    -0.33700
N500        N  0.53300055  0.67540032  0.01183866    -0.28000
C501        C  0.50840617  0.70026387  0.00765704    -0.04100
C502        C  0.45745742  0.69676492  0.00757484     0.08100
C503        C  0.45323214  0.66876953  0.01154437     0.01900
H504        H  0.52591914  0.71943620  0.00438103     0.09600
H505        H  0.41783847  0.65795234  0.01085831     0.08700
N506        N  0.67852324  0.66011778  0.51314229    -0.35200
N507        N  0.68080069  0.63402572  0.50518776    -0.27400
C508        C  0.73228821  0.62759360  0.51129383    -0.02600
C509        C  0.76513830  0.65047019  0.52407239     0.06000
C510        C  0.72970289  0.67104512  0.52468671     0.04100
H511        H  0.74537935  0.60701607  0.50870369     0.09200
H512        H  0.74092662  0.69160949  0.53499767     0.08000
N513        N  0.10500973  0.46422061  0.55065502    -0.26300
N514        N  0.05435863  0.45864637  0.54583775    -0.34200
C515        C  0.03046537  0.48209608  0.54905266     0.02000
C516        C  0.06800648  0.50336501  0.55588772     0.08000
C517        C  0.11479506  0.49128771  0.55671391    -0.05100
H518        H  0.98826031  0.48372074  0.54527152     0.08700
H519        H  0.15264306  0.50146013  0.56053168     0.09900
Cu520      Cu  0.02014584  0.41971963  0.53128780     0.44200
Cu521      Cu  0.15586618  0.43504009  0.54556683     0.42000
Cu522      Cu  0.09910955  0.37010863  0.50545524     0.43900
N523        N  0.99303874  0.38073289  0.51122687    -0.33700
N524        N  0.02000784  0.36343283  0.50053857    -0.28000
C525        C  0.98839522  0.34109324  0.48693192    -0.04100
C526        C  0.93956016  0.34434377  0.48955032     0.08100
C527        C  0.94408730  0.36966062  0.50514881     0.01900
H528        H  0.00034574  0.32369397  0.47619361     0.09600
H529        H  0.91332367  0.37974540  0.51075784     0.08700
N530        N  0.17917240  0.38241088  0.51748081    -0.35200
N531        N  0.19911697  0.40607428  0.53296611    -0.27400
C532        C  0.24919491  0.41009005  0.53477047    -0.02600
C533        C  0.26201223  0.38792319  0.51991736     0.06000
C534        C  0.21677391  0.37059914  0.50911480     0.04100
H535        H  0.27287989  0.42880967  0.54398049     0.09200
H536        H  0.20985014  0.35208755  0.49396723     0.08000
N537        N  0.47725171  0.45885255  0.00672824    -0.26300
N538        N  0.52518157  0.45251299  0.00738805    -0.34200
C539        C  0.54997947  0.47590668  0.00502701     0.02000
C540        C  0.51598586  0.49794413  0.00308129     0.08000
C541        C  0.47023662  0.48634183  0.00422009    -0.05100
H542        H  0.59057223  0.47687080  0.00596748     0.08700
H543        H  0.43497498  0.49706338  0.00398211     0.09900
Cu544      Cu  0.55530643  0.41227780  0.01531516     0.44200
Cu545      Cu  0.42638539  0.42968686  0.01198270     0.42000
Cu546      Cu  0.47050156  0.36813130  0.52669192     0.43900
N547        N  0.58077470  0.37189061  0.03049245    -0.33700
N548        N  0.55122819  0.36159518  0.53412000    -0.28000
C549        C  0.58184122  0.33864586  0.54644653    -0.04100
C550        C  0.63220039  0.34251473  0.54595103     0.08100
C551        C  0.62964123  0.36877439  0.53304300     0.01900
H552        H  0.56819953  0.32041784  0.55478068     0.09600
H553        H  0.66211856  0.37229162  0.03323259     0.08700
N554        N  0.39055283  0.38169061  0.51360770    -0.35200
N555        N  0.38231827  0.39943932  0.02201839    -0.27400
C556        C  0.33559537  0.40370269  0.02476823    -0.02600
C557        C  0.30696741  0.38793142  0.50990120     0.06000
C558        C  0.35057768  0.36957845  0.51941955     0.04100
H559        H  0.31552055  0.42352793  0.02157805     0.09200
H560        H  0.35502965  0.35011864  0.53247498     0.08000
C561        C  0.31216065  0.80535998  0.80838020    -0.15500
C562        C  0.29043012  0.80578297  0.77402034    -0.30700
H563        H  0.35655299  0.80369645  0.82320385     0.13500
H564        H  0.24603231  0.80455608  0.75902313     0.14100
C565        C  0.33598980  0.76948625  0.93063902    -0.15500
C566        C  0.28353130  0.77746636  0.91084862    -0.30700
H567        H  0.36763943  0.77372663  0.92244597     0.13500
H568        H  0.25215496  0.77309301  0.91928866     0.14100
C569        C  0.27355351  0.76784032  0.65365839    -0.15500
C570        C  0.32558391  0.77531679  0.67479212    -0.30700
H571        H  0.24041896  0.77309586  0.66020845     0.13500
H572        H  0.35871146  0.77006995  0.66823176     0.14100
C573        C  0.30927878  0.73593573  0.55517395    -0.15500
C574        C  0.28778887  0.73592536  0.52083454    -0.30700
H575        H  0.35361957  0.73761364  0.57018311     0.13500
H576        H  0.24337934  0.73718974  0.50581940     0.14100
C577        C  0.77654056  0.23611631  0.75012894    -0.15500
C578        C  0.79758164  0.23579174  0.78435812    -0.30700
H579        H  0.73228461  0.23814322  0.73488918     0.13500
H580        H  0.84194758  0.23676647  0.79970880     0.14100
C581        C  0.81375005  0.27346183  0.90394375    -0.15500
C582        C  0.76117661  0.26749774  0.88211671    -0.30700
H583        H  0.84690068  0.26779909  0.89758715     0.13500
H584        H  0.72812552  0.27334193  0.88848529     0.14100
C585        C  0.75984816  0.27546464  0.63165520    -0.15500
C586        C  0.81212024  0.26760519  0.65225094    -0.30700
H587        H  0.72694456  0.27023774  0.63839929     0.13500
H588        H  0.84505060  0.27282488  0.64553739     0.14100
C589        C  0.77537450  0.30748278  0.49996357    -0.15500
C590        C  0.79617506  0.30717067  0.53415330    -0.30700
H591        H  0.73235967  0.29846999  0.98769934     0.13500
H592        H  0.84048600  0.30578165  0.54958155     0.14100
loop_ 
_geom_bond_atom_site_label_1 
_geom_bond_atom_site_label_2 
_geom_bond_distance 
_geom_bond_site_symmetry_2 
_ccdc_geom_bond_type 
C1            C2   1.402       .  A
C1            C6   1.406       .  A
C1          C254   1.479       .  S
C2            C3   1.403       .  A
C2            H7   1.083       .  S
C3            C4   1.401       .  A
C3          C294   1.479       .  S
C4            C5   1.409       .  A
C4            H8   1.082       .  S
C5            C6   1.408       .  A
C5          C289   1.491       .  S
C6            H9   1.084       .  S
C10          C11   1.406       .  A
C10         C311   1.402       .  A
C10         C526   1.478       .  S
C11          C12   1.406       .  A
C11          H16   1.084       .  S
C12          C13   1.408       .  A
C12         C285   1.488       .  S
C13          C14   1.399       .  A
C13          H17   1.082       .  S
C14         C311   1.402       .  A
C14         C589   1.478       .  S
C15         C306   1.401       .  A
C15         C310   1.401       .  A
C15          H18   1.083   1_556  S
C19          C20   1.401       .  A
C19          C24   1.402       .  A
C19          C98   1.474       .  S
C20          C21   1.406       .  A
C20          H25   1.084       .  S
C21          C22   1.409       .  A
C21         C286   1.485       .  S
C22          C23   1.403       .  A
C22          H26   1.082       .  S
C23          C24   1.403       .  A
C23         C282   1.481       .  S
C24          H27   1.084       .  S
C28          C29   1.403       .  A
C28          C33   1.403       .  A
C28         C122   1.478       .  S
C29          C30   1.403       .  A
C29          H34   1.084       .  S
C30          C31   1.403       .  A
C30         C281   1.481       .  S
C31          C32   1.409       .  A
C31          H35   1.082       .  S
C32          C33   1.407       .  A
C32         C290   1.490       .  S
C33          H36   1.084       .  S
N37          N38   1.319   1_655  A
N37          C41   1.342       .  A
N37         Cu45   2.052       .  S
N38          C39   1.346       .  A
N38         Cu44   2.072       .  S
C39          C40   1.386   1_565  A
C39          H42   1.082       .  S
C40          C41   1.381   1_445  A
C40         C112   1.469       .  S
C41          H43   1.082   1_565  S
Cu44         N47   2.073       .  S
Cu45         N55   2.052       .  S
Cu46         N48   2.094   1_655  S
Cu46         N54   2.092       .  S
N47          N48   1.325       .  A
N47          C51   1.343       .  A
N48          C49   1.348       .  A
C49          C50   1.387       .  A
C49          H52   1.082       .  S
C50          C51   1.381       .  A
C50         C160   1.478       .  S
C51          H53   1.082       .  S
N54          N55   1.322       .  A
N54          C58   1.353       .  A
N55          C56   1.336       .  A
C56          C57   1.377       .  A
C56          H59   1.082       .  S
C57          C58   1.388       .  A
C57          C81   1.469       .  S
C58          H60   1.082       .  S
N61          N62   1.318       .  A
N61          C65   1.343       .  A
N61         Cu69   2.055       .  S
N62          C63   1.346       .  A
N62         Cu68   2.066       .  S
C63          C64   1.385   1_565  A
C63          H66   1.082       .  S
C64          C65   1.381   1_545  A
C64          C88   1.469       .  S
C65          H67   1.082       .  S
Cu68         N71   2.068       .  S
Cu69         N79   2.056       .  S
Cu70         N72   2.094       .  S
Cu70         N78   2.093       .  S
N71          N72   1.325       .  A
N71          C75   1.341       .  A
N72          C73   1.349       .  A
C73          C74   1.386       .  A
C73          H76   1.082       .  S
C74          C75   1.379       .  A
C74         C151   1.475       .  S
C75          H77   1.082       .  S
N78          N79   1.323       .  A
N78          C82   1.353       .  A
N79          C80   1.337       .  A
C80          C81   1.377       .  A
C80          H83   1.082       .  S
C81          C82   1.388       .  A
C82          H84   1.082       .  S
N85          N86   1.318       .  A
N85          C89   1.344       .  A
N85         Cu93   2.057       .  S
N86          C87   1.344       .  A
N86         Cu92   2.062       .  S
C87          C88   1.384       .  A
C87          H90   1.082       .  S
C88          C89   1.383       .  A
C89          H91   1.082       .  S
Cu92         N95   2.064       .  S
Cu93        N103   2.056       .  S
Cu94         N96   2.098       .  S
Cu94        N102   2.097       .  S
N95          N96   1.325       .  A
N95          C99   1.341       .  A
N96          C97   1.349       .  A
C97          C98   1.387       .  A
C97         H100   1.082       .  S
C98          C99   1.378       .  A
C99         H101   1.082       .  S
N102        N103   1.323       .  A
N102        C106   1.355       .  A
N103        C104   1.335       .  A
C104        C105   1.377       .  A
C104        H107   1.082       .  S
C105        C106   1.390       .  A
C105        C129   1.472       .  S
C106        H108   1.082       .  S
N109        N110   1.318       .  A
N109        C113   1.344       .  A
N109       Cu117   2.051       .  S
N110        C111   1.345       .  A
N110       Cu116   2.070       .  S
C111        C112   1.386       .  A
C111        H114   1.082   1_455  S
C112        C113   1.382       .  A
C113        H115   1.082       .  S
Cu116       N119   2.072   1_455  S
Cu117       N127   2.051       .  S
Cu118       N120   2.099       .  S
Cu118       N126   2.097       .  S
N119        N120   1.326   1_655  A
N119        C123   1.342       .  A
N120        C121   1.350   1_455  A
C121        C122   1.387       .  A
C121        H124   1.082   1_655  S
C122        C123   1.380       .  A
C123        H125   1.082       .  S
N126        N127   1.322       .  A
N126        C130   1.356       .  A
N127        C128   1.334       .  A
C128        C129   1.376       .  A
C128        H131   1.082       .  S
C129        C130   1.391       .  A
C130        H132   1.082       .  S
C133        C134   1.404       .  A
C133        C138   1.400       .  A
C133        C182   1.478       .  S
C134        C135   1.406       .  A
C134        H139   1.084       .  S
C135        C136   1.411       .  A
C135        C277   1.488       .  S
C136        C137   1.412       .  A
C136        H140   1.083       .  S
C137        C138   1.403       .  A
C137        C273   1.487       .  S
C138        H141   1.084       .  S
C142        C143   1.401       .  A
C142        C443   1.404       .  A
C142        C206   1.475       .  S
C143        C144   1.404       .  A
C143        H148   1.084       .  S
C144        C145   1.411       .  A
C144        C269   1.490       .  S
C145        C442   1.407       .  A
C145        H149   1.082       .  S
C146        C147   1.409       .  A
C146        C441   1.409   1_554  A
C146        C278   1.492       .  S
C147        C438   1.405       .  A
C147        H150   1.083       .  S
C151        C152   1.403       .  A
C151        C156   1.403       .  A
C152        C153   1.406       .  A
C152        H157   1.084       .  S
C153        C154   1.414       .  A
C153        C274   1.492       .  S
C154        C155   1.405       .  A
C154        H158   1.082       .  S
C155        C156   1.403       .  A
C155        C266   1.488       .  S
C156        H159   1.084       .  S
C160        C161   1.403       .  A
C160        C165   1.404       .  A
C161        C162   1.405       .  A
C161        H166   1.084       .  S
C162        C163   1.412       .  A
C162        C270   1.491       .  S
C163        C164   1.406       .  A
C163        H167   1.082       .  S
C164        C165   1.405       .  A
C164        C265   1.487       .  S
C165        H168   1.083       .  S
N169        N170   1.319       .  A
N169        C173   1.344       .  A
N169       Cu177   2.058   1_455  S
N170        C171   1.346       .  A
N170       Cu176   2.077       .  S
C171        C172   1.386       .  A
C171        H174   1.082       .  S
C172        C173   1.382       .  A
C172        C220   1.471       .  S
C173        H175   1.082   1_455  S
Cu176       N179   2.078       .  S
Cu177       N187   2.058       .  S
Cu178       N180   2.098   1_655  S
Cu178       N186   2.095       .  S
N179        N180   1.326       .  A
N179        C183   1.345       .  A
N180        C181   1.348       .  A
C181        C182   1.386       .  A
C181        H184   1.082       .  S
C182        C183   1.381       .  A
C183        H185   1.082       .  S
N186        N187   1.322       .  A
N186        C190   1.355       .  A
N187        C188   1.337       .  A
C188        C189   1.379       .  A
C188        H191   1.082       .  S
C189        C190   1.390       .  A
C189        C213   1.476       .  S
C190        H192   1.082       .  S
N193        N490   1.320   1_556  A
N193        C197   1.343       .  A
N193       Cu201   2.055       .  S
N194        N489   1.319       .  A
N194        C195   1.346       .  A
N194       Cu200   2.076       .  S
C195        C196   1.387       .  A
C195        H198   1.082       .  S
C196        C493   1.381       .  A
C196        C244   1.470       .  S
C197        C492   1.381   1_556  A
C197        H199   1.082       .  S
Cu200       N203   2.077       .  S
Cu201       N211   2.054   1_556  S
Cu202       N210   2.100       .  S
Cu202       N500   2.103       .  S
N203        N204   1.326       .  A
N203        C207   1.344       .  A
N204        C205   1.348       .  A
N204       Cu498   2.097       .  S
C205        C206   1.386       .  A
C205        H208   1.082       .  S
C206        C207   1.379       .  A
C207        H209   1.082       .  S
N210        N211   1.322       .  A
N210        C214   1.355       .  A
N211        C212   1.336       .  A
C212        C213   1.378       .  A
C212        H215   1.082       .  S
C213        C214   1.391       .  A
C214        H216   1.082       .  S
N217        N218   1.318       .  A
N217        C221   1.344       .  A
N217       Cu225   2.057       .  S
N218        C219   1.346       .  A
N218       Cu224   2.072       .  S
C219        C220   1.386       .  A
C219        H222   1.082   1_455  S
C220        C221   1.382       .  A
C221        H223   1.082       .  S
Cu224       N227   2.073   1_455  S
Cu225       N235   2.057       .  S
Cu226       N228   2.087       .  S
Cu226       N234   2.086       .  S
N227        N228   1.325   1_655  A
N227        C231   1.341       .  A
N228        C229   1.349   1_454  A
C229        C230   1.385       .  A
C229        H232   1.082   1_655  S
C230        C231   1.380   1_556  A
C230        C306   1.475       .  S
C231        H233   1.082       .  S
N234        N235   1.322       .  A
N234        C238   1.351       .  A
N235        C236   1.337       .  A
C236        C237   1.377       .  A
C236        H239   1.082       .  S
C237        C238   1.387       .  A
C237        C261   1.466       .  S
C238        H240   1.082       .  S
N241        N242   1.319       .  A
N241        C245   1.343       .  A
N241       Cu249   2.053       .  S
N242        C243   1.346       .  A
N242       Cu248   2.079       .  S
C243        C244   1.387       .  A
C243        H246   1.082       .  S
C244        C245   1.380       .  A
C245        H247   1.082       .  S
Cu248       N251   2.081       .  S
Cu249       N259   2.052       .  S
Cu250       N252   2.083       .  S
Cu250       N258   2.082       .  S
N251        N548   1.325       .  A
N251        C551   1.343       .  A
N252        N547   1.325       .  A
N252        C253   1.347       .  A
C253        C254   1.384       .  A
C253        H256   1.082       .  S
C254        C255   1.384       .  A
C255        H553   1.082       .  S
C255        N547   1.345       .  A
H257        C551   1.082       .  S
N258        N555   1.322       .  A
N258        C262   1.351       .  A
N259        N554   1.322       .  A
N259        C260   1.336       .  A
C260        C557   1.376       .  A
C260        H263   1.082       .  S
C261        C262   1.386       .  A
C261        C556   1.377       .  A
C262        H264   1.082       .  S
C265        C266   1.349       .  D
C265        H267   1.086       .  S
C266        H268   1.086       .  S
C269        C270   1.348       .  D
C269        H271   1.084       .  S
C270        H272   1.084       .  S
C273        C274   1.347       .  D
C273        H275   1.085       .  S
C274        H276   1.086       .  S
C277        C278   1.348       .  D
C277        H279   1.086       .  S
C278        H280   1.087       .  S
C281        C282   1.346       .  D
C281        H283   1.087       .  S
C282        H284   1.087       .  S
C285        C286   1.349       .  D
C285        H287   1.085       .  S
C286        H288   1.085       .  S
C289        C290   1.351       .  D
C289        H291   1.084       .  S
C290        H292   1.084       .  S
C293        C310   1.480   1_554  S
C293        C294   1.345       .  D
C293        H591   1.087   1_554  S
C294        H296   1.087       .  S
H295        C589   1.087       .  S
C297        C298   1.401       .  A
C297        C302   1.406       .  A
C297        C550   1.478       .  S
C298        C299   1.402       .  A
C298        H303   1.084       .  S
C299        C300   1.400       .  A
C299        C590   1.478       .  S
C300        C301   1.408       .  A
C300        H304   1.081       .  S
C301        C302   1.409       .  A
C301        C585   1.489       .  S
C302        H305   1.084       .  S
C306        C307   1.403       .  A
C307        C308   1.406       .  A
C307        H312   1.084       .  S
C308        C309   1.410       .  A
C308        C581   1.487       .  S
C309        C310   1.401       .  A
C309        H313   1.082       .  S
C311        H314   1.083       .  S
C315        C316   1.402       .  A
C315        C320   1.402       .  A
C315        C394   1.475       .  S
C316        C317   1.405       .  A
C316        H321   1.084       .  S
C317        C318   1.409       .  A
C317        C582   1.486       .  S
C318        C319   1.402       .  A
C318        H322   1.082       .  S
C319        C320   1.404       .  A
C319        C578   1.480       .  S
C320        H323   1.084       .  S
C324        C325   1.403       .  A
C324        C329   1.405       .  A
C324        C418   1.478       .  S
C325        C326   1.403       .  A
C325        H330   1.084       .  S
C326        C327   1.401       .  A
C326        C577   1.480       .  S
C327        C328   1.408       .  A
C327        H331   1.082       .  S
C328        C329   1.409       .  A
C328        C586   1.489       .  S
C329        H332   1.084       .  S
N333        N334   1.319   1_655  A
N333        C337   1.344       .  A
N333       Cu341   2.060       .  S
N334        C335   1.347       .  A
N334       Cu340   2.076       .  S
C335        C336   1.387   1_565  A
C335        H338   1.082       .  S
C336        C337   1.383   1_445  A
C336        C408   1.474       .  S
C337        H339   1.082   1_565  S
Cu340       N343   2.078       .  S
Cu341       N351   2.060       .  S
Cu342       N344   2.096   1_655  S
Cu342       N350   2.094       .  S
N343        N344   1.325       .  A
N343        C347   1.342       .  A
N344        C345   1.351       .  A
C345        C346   1.387       .  A
C345        H348   1.082       .  S
C346        C347   1.380       .  A
C346        C456   1.478       .  S
C347        H349   1.081       .  S
N350        N351   1.323       .  A
N350        C354   1.353       .  A
N351        C352   1.337       .  A
C352        C353   1.378       .  A
C352        H355   1.082       .  S
C353        C354   1.388       .  A
C353        C377   1.471       .  S
C354        H356   1.082       .  S
N357        N358   1.318       .  A
N357        C361   1.343       .  A
N357       Cu365   2.046       .  S
N358        C359   1.345       .  A
N358       Cu364   2.072       .  S
C359        C360   1.386   1_565  A
C359        H362   1.082       .  S
C360        C361   1.380   1_545  A
C360        C384   1.468       .  S
C361        H363   1.082   1_565  S
Cu364       N367   2.074       .  S
Cu365       N375   2.046       .  S
Cu366       N368   2.100       .  S
Cu366       N374   2.097       .  S
N367        N368   1.326       .  A
N367        C371   1.343       .  A
N368        C369   1.349       .  A
C369        C370   1.387       .  A
C369        H372   1.082       .  S
C370        C371   1.380       .  A
C370        C447   1.478       .  S
C371        H373   1.082       .  S
N374        N375   1.322       .  A
N374        C378   1.355       .  A
N375        C376   1.335       .  A
C376        C377   1.375       .  A
C376        H379   1.082       .  S
C377        C378   1.391       .  A
C378        H380   1.082       .  S
N381        N382   1.318       .  A
N381        C385   1.341       .  A
N381       Cu389   2.046       .  S
N382        C383   1.346       .  A
N382       Cu388   2.071       .  S
C383        C384   1.387       .  A
C383        H386   1.082       .  S
C384        C385   1.379       .  A
C385        H387   1.081       .  S
Cu388       N391   2.072       .  S
Cu389       N399   2.047       .  S
Cu390       N392   2.097       .  S
Cu390       N398   2.094       .  S
N391        N392   1.326       .  A
N391        C395   1.342       .  A
N392        C393   1.349       .  A
C393        C394   1.386       .  A
C393        H396   1.082       .  S
C394        C395   1.379       .  A
C395        H397   1.082       .  S
N398        N399   1.321       .  A
N398        C402   1.354       .  A
N399        C400   1.335       .  A
C400        C401   1.376       .  A
C400        H403   1.082       .  S
C401        C402   1.390       .  A
C401        C425   1.470       .  S
C402        H404   1.082       .  S
N405        N406   1.319       .  A
N405        C409   1.346       .  A
N405       Cu413   2.063       .  S
N406        C407   1.345       .  A
N406       Cu412   2.074       .  S
C407        C408   1.386       .  A
C407        H410   1.082   1_455  S
C408        C409   1.384       .  A
C409        H411   1.082       .  S
Cu412       N415   2.076   1_455  S
Cu413       N423   2.063       .  S
Cu414       N416   2.092       .  S
Cu414       N422   2.092       .  S
N415        N416   1.324   1_655  A
N415        C419   1.343       .  A
N416        C417   1.350   1_455  A
C417        C418   1.387       .  A
C417        H420   1.082   1_655  S
C418        C419   1.381       .  A
C419        H421   1.082       .  S
N422        N423   1.323       .  A
N422        C426   1.352       .  A
N423        C424   1.338       .  A
C424        C425   1.378       .  A
C424        H427   1.082       .  S
C425        C426   1.387       .  A
C426        H428   1.082       .  S
C429        C430   1.404       .  A
C429        C434   1.402       .  A
C429        C478   1.476       .  S
C430        C431   1.406       .  A
C430        H435   1.084       .  S
C431        C432   1.406       .  A
C431        C573   1.487       .  S
C432        C433   1.412       .  A
C432        H436   1.082       .  S
C433        C434   1.405       .  A
C433        C569   1.491       .  S
C434        H437   1.084       .  S
C438        C439   1.403   1_554  A
C438        C502   1.480       .  S
C439        C440   1.405       .  A
C439        H444   1.084       .  S
C440        C441   1.411       .  A
C440        C565   1.492       .  S
C441        H445   1.083       .  S
C442        C443   1.406       .  A
C442        C574   1.487       .  S
C443        H446   1.084       .  S
C447        C448   1.403       .  A
C447        C452   1.404       .  A
C448        C449   1.405       .  A
C448        H453   1.084       .  S
C449        C450   1.412       .  A
C449        C570   1.491       .  S
C450        C451   1.406       .  A
C450        H454   1.082       .  S
C451        C452   1.405       .  A
C451        C562   1.487       .  S
C452        H455   1.084       .  S
C456        C457   1.405       .  A
C456        C461   1.403       .  A
C457        C458   1.409       .  A
C457        H462   1.084       .  S
C458        C459   1.413       .  A
C458        C566   1.497       .  S
C459        C460   1.406       .  A
C459        H463   1.081       .  S
C460        C461   1.404       .  A
C460        C561   1.488       .  S
C461        H464   1.084       .  S
N465        N466   1.318       .  A
N465        C469   1.342       .  A
N465       Cu473   2.050   1_455  S
N466        C467   1.346       .  A
N466       Cu472   2.074       .  S
C467        C468   1.387       .  A
C467        H470   1.082       .  S
C468        C469   1.380       .  A
C468        C516   1.469       .  S
C469        H471   1.082   1_455  S
Cu472       N475   2.075       .  S
Cu473       N483   2.049       .  S
Cu474       N476   2.100   1_655  S
Cu474       N482   2.096       .  S
N475        N476   1.326       .  A
N475        C479   1.343       .  A
N476        C477   1.349       .  A
C477        C478   1.386       .  A
C477        H480   1.082       .  S
C478        C479   1.379       .  A
C479        H481   1.082       .  S
N482        N483   1.321       .  A
N482        C486   1.356       .  A
N483        C484   1.334       .  A
C484        C485   1.377       .  A
C484        H487   1.082       .  S
C485        C486   1.392       .  A
C485        C509   1.475       .  S
C486        H488   1.082       .  S
N489        C493   1.344       .  A
N489       Cu497   2.054       .  S
N490        C491   1.348       .  A
N490       Cu496   2.084       .  S
C491        C492   1.388       .  A
C491        H494   1.082       .  S
C492        C540   1.473       .  S
C493        H495   1.082       .  S
Cu496       N499   2.084       .  S
Cu497       N507   2.052       .  S
Cu498       N506   2.094       .  S
N499        N500   1.326       .  A
N499        C503   1.346       .  A
N500        C501   1.350       .  A
C501        C502   1.387       .  A
C501        H504   1.082       .  S
C502        C503   1.381       .  A
C503        H505   1.081       .  S
N506        N507   1.321       .  A
N506        C510   1.356       .  A
N507        C508   1.334       .  A
C508        C509   1.378       .  A
C508        H511   1.081       .  S
C509        C510   1.391       .  A
C510        H512   1.082       .  S
N513        N514   1.320       .  A
N513        C517   1.343       .  A
N513       Cu521   2.052       .  S
N514        C515   1.345       .  A
N514       Cu520   2.077       .  S
C515        C516   1.386       .  A
C515        H518   1.082   1_455  S
C516        C517   1.380       .  A
C517        H519   1.082       .  S
Cu520       N523   2.078   1_455  S
Cu521       N531   2.052       .  S
Cu522       N524   2.080       .  S
Cu522       N530   2.079       .  S
N523        N524   1.324   1_655  A
N523        C527   1.343       .  A
N524        C525   1.347   1_455  A
C525        C526   1.384       .  A
C525        H528   1.082   1_655  S
C526        C527   1.384       .  A
C527        H529   1.082       .  S
N530        N531   1.321       .  A
N530        C534   1.350       .  A
N531        C532   1.336       .  A
C532        C533   1.377       .  A
C532        H535   1.082       .  S
C533        C534   1.386       .  A
C533        C557   1.463       .  S
C534        H536   1.082       .  S
N537        N538   1.320       .  A
N537        C541   1.345       .  A
N537       Cu545   2.058       .  S
N538        C539   1.346       .  A
N538       Cu544   2.084       .  S
C539        C540   1.387       .  A
C539        H542   1.082       .  S
C540        C541   1.381       .  A
C541        H543   1.082       .  S
Cu544       N547   2.085       .  S
Cu545       N555   2.058       .  S
Cu546       N548   2.085       .  S
Cu546       N554   2.084       .  S
N548        C549   1.349       .  A
C549        C550   1.385       .  A
C549        H552   1.082       .  S
C550        C551   1.383       .  A
N554        C558   1.351       .  A
N555        C556   1.337       .  A
C556        H559   1.082       .  S
C557        C558   1.386       .  A
C558        H560   1.082       .  S
C561        C562   1.349       .  D
C561        H563   1.087       .  S
C562        H564   1.087       .  S
C565        C566   1.351       .  D
C565        H567   1.084       .  S
C566        H568   1.086       .  S
C569        C570   1.349       .  D
C569        H571   1.085       .  S
C570        H572   1.085       .  S
C573        C574   1.348       .  D
C573        H575   1.087       .  S
C574        H576   1.087       .  S
C577        C578   1.345       .  D
C577        H579   1.087       .  S
C578        H580   1.087       .  S
C581        C582   1.349       .  D
C581        H583   1.084       .  S
C582        H584   1.085       .  S
C585        C586   1.352       .  D
C585        H587   1.084       .  S
C586        H588   1.084       .  S
C589        C590   1.343       .  D
C590        H592   1.087       .  S
