geometry optimzed in LAMMPS
_audit_creation_date              2020-11-30 
_audit_creation_method            'lammps2cif' 
_symmetry_space_group_name_H-M    'P1' 
_symmetry_Int_Tables_number       1 
_symmetry_cell_setting            triclinic 
loop_ 
_symmetry_equiv_pos_as_xyz 
  x,y,z 
_cell_length_a                    53.1508625 
_cell_length_b                    53.8545876857864 
_cell_length_c                    52.35784288241119 
_cell_angle_alpha                 90.33416338391739 
_cell_angle_beta                  89.92668603583562 
_cell_angle_gamma                 90.11175665560077 
loop_ 
_atom_site_label 
_atom_site_type_symbol 
_atom_site_fract_x 
_atom_site_fract_y 
_atom_site_fract_z 
_atom_site_charge 
O1          O  0.54309950  0.96500674  0.49635833    -0.80300
O2          O  0.43956270  0.98556247  0.52669059    -0.80400
O3          O  0.50657885  0.95658725  0.53941978    -0.80400
O4          O  0.49404279  0.95365663  0.46835954    -0.80300
O5          O  0.47943859  0.98109979  0.55945583    -0.80400
O6          O  0.52177740  0.97801902  0.45175048    -0.80400
O7          O  0.45202188  0.95596747  0.50045005    -0.80300
O8          O  0.55637208  0.97276576  0.53514656    -0.80400
C9          C  0.56058574  0.96344512  0.51327451     1.09300
C10         C  0.43573643  0.96490724  0.51565550     1.09200
C11         C  0.49301144  0.96143631  0.55882640     1.09400
C12         C  0.50753199  0.95929714  0.44943899     1.09200
O13         O  0.50985842  0.02660208  0.46902400    -0.80300
O14         O  0.49586086  0.03077377  0.54420295    -0.80400
O15         O  0.54448069  0.01665991  0.51359992    -0.80400
O16         O  0.44173569  0.00439226  0.48095955    -0.80300
O17         O  0.45528913  0.03225677  0.50924816    -0.80400
O18         O  0.55802017  0.00787715  0.47475435    -0.80400
O19         O  0.48208669  0.00309709  0.44900079    -0.80300
O20         O  0.52165515  0.00300319  0.55827452    -0.80400
Co21       Co  0.52503312  0.99717973  0.48488005     1.51500
Co22       Co  0.46943756  0.00700821  0.53298417     1.51700
Co23       Co  0.52411743  0.98531647  0.52451604     1.51600
Co24       Co  0.46910195  0.97946348  0.47656623     1.51500
O25         O  0.49217621  0.99270181  0.50474553    -1.42300
C26         C  0.49722550  0.02163596  0.44909631     1.09300
C27         C  0.50955675  0.02284601  0.56208612     1.09400
C28         C  0.56159435  0.01855426  0.49613272     1.09300
C29         C  0.44000740  0.02548081  0.49179693     1.09300
O30         O  0.01593663  0.55997702  0.47167669    -0.80300
O31         O  0.02544194  0.45728121  0.50768290    -0.80400
O32         O  0.04082273  0.50602886  0.53334616    -0.80400
O33         O  0.04009316  0.49091879  0.46351411    -0.80300
O34         O  0.01259102  0.48204346  0.55018052    -0.80400
O35         O  0.01845851  0.51900119  0.44184543    -0.80400
O36         O  0.01959485  0.44325719  0.46872100    -0.80300
O37         O  0.04410647  0.54600615  0.49896590    -0.80400
C38         C  0.03727559  0.56170060  0.48233024     1.09300
C39         C  0.02770000  0.43955261  0.49116103     1.09200
C40         C  0.03288400  0.49421636  0.55251926     1.09400
C41         C  0.03721361  0.50422589  0.44377886     1.09200
O42         O  0.96705016  0.50650510  0.45678956    -0.80300
O43         O  0.96556084  0.49790004  0.53114475    -0.80400
O44         O  0.99588865  0.56204514  0.51583564    -0.80400
O45         O  0.97510386  0.46003658  0.48720567    -0.80300
O46         O  0.97946299  0.44780796  0.52698757    -0.80400
O47         O  0.96665618  0.54791751  0.48938868    -0.80400
O48         O  0.99288463  0.47906025  0.44240435    -0.80300
O49         O  0.99197264  0.52436998  0.54943942    -0.80400
Co50       Co  0.99194238  0.53178482  0.46667029     1.51500
Co51       Co  0.99418147  0.47897321  0.51665204     1.51700
Co52       Co  0.01803044  0.53285809  0.52274598     1.51600
Co53       Co  0.00896113  0.47658635  0.47727052     1.51500
O54         O  0.00351180  0.50958898  0.49571592    -1.42300
C55         C  0.97458343  0.49341080  0.43828784     1.09300
C56         C  0.97139105  0.51208834  0.54975202     1.09400
C57         C  0.97471869  0.56435394  0.50484307     1.09300
C58         C  0.97111232  0.44361405  0.50459778     1.09300
O59         O  0.46095669  0.50803628  0.02982195    -0.80300
O60         O  0.55602198  0.47847685  0.02330950    -0.80400
O61         O  0.48350836  0.45461299  0.03618517    -0.80400
O62         O  0.53524955  0.53213232  0.02809181    -0.80300
O63         O  0.52130780  0.44004944  0.02874093    -0.80400
O64         O  0.49677219  0.54450585  0.02786776    -0.80400
O65         O  0.56796473  0.50858094  0.99842262    -0.80300
O66         O  0.44568230  0.47632100  0.00947918    -0.80400
C67         C  0.44239663  0.49430809  0.02428762     1.09300
C68         C  0.57365788  0.49104374  0.01361505     1.09200
C69         C  0.50061952  0.43909330  0.04086837     1.09400
C70         C  0.51887391  0.54694717  0.03609561     1.09200
O71         O  0.50044780  0.53909564  0.97284878    -0.80300
O72         O  0.51524662  0.43937858  0.97358764    -0.80400
O73         O  0.47636000  0.47177891  0.96462453    -0.80400
O74         O  0.53150624  0.50639093  0.95741401    -0.80300
O75         O  0.55242271  0.47356931  0.96883322    -0.80400
O76         O  0.45948604  0.50722099  0.97410898    -0.80400
O77         O  0.53839822  0.55279288  0.98086345    -0.80300
O78         O  0.48013594  0.43190275  0.99324825    -0.80400
Co79       Co  0.48232194  0.52137246  0.00155161     1.51500
Co80       Co  0.53404382  0.46061300  0.99925574     1.51700
Co81       Co  0.48020459  0.46732463  0.00142555     1.51600
Co82       Co  0.53137917  0.51899013  0.99304159     1.51500
O83         O  0.50916690  0.49078178  0.00434623    -1.42300
C84         C  0.51580677  0.55748202  0.97401159     1.09300
C85         C  0.49711268  0.42478254  0.97846702     1.09400
C86         C  0.45983122  0.48777869  0.96035212     1.09300
C87         C  0.54876347  0.49093168  0.95313972     1.09300
C88         C  0.55925823  0.91318357  0.73148950     0.02900
C89         C  0.57382027  0.89144263  0.73341436    -0.13200
C90         C  0.58653450  0.88546350  0.75598027     0.00400
C91         C  0.58356098  0.90083460  0.77743414    -0.11800
C92         C  0.56953177  0.92301185  0.77637340     0.02900
C93         C  0.55719232  0.92892377  0.75318700    -0.11200
H94         H  0.57541698  0.87898052  0.71719152     0.08500
H95         H  0.59295096  0.89568876  0.79492214     0.06000
H96         H  0.54685574  0.94613615  0.75165265     0.05900
C97         C  0.75157800  0.72942183  0.78198974     0.80000
N98         N  0.76947105  0.73125963  0.76357604    -0.78300
C99         C  0.76774752  0.74845921  0.74480221     0.82500
N100        N  0.74757139  0.76396520  0.74445587    -0.78200
C101        C  0.72934106  0.76239157  0.76271580     0.82600
N102        N  0.73153219  0.74507211  0.78142652    -0.80000
C103        C  0.91497458  0.73091964  0.56461656     0.02900
C104        C  0.89911538  0.73049198  0.58623691    -0.13200
C105        C  0.89401902  0.75217550  0.60037812     0.00400
C106        C  0.90590381  0.77441590  0.59343819    -0.11800
C107        C  0.92171909  0.77568280  0.57188897     0.02900
C108        C  0.92552655  0.75394388  0.55726653    -0.11200
H109        H  0.89076820  0.71324270  0.59242969     0.08500
H110        H  0.90323630  0.79065349  0.60540158     0.06000
H111        H  0.93657008  0.75511713  0.53997665     0.05900
C112        C  0.76492421  0.55416585  0.93268350     0.02900
C113        C  0.76819379  0.57584027  0.91817804    -0.13200
C114        C  0.74811017  0.58594565  0.90435039     0.00400
C115        C  0.72455525  0.57428985  0.90518353    -0.11800
C116        C  0.72045425  0.55290359  0.91991588     0.02900
C117        C  0.74100987  0.54267067  0.93337191    -0.11200
H118        H  0.78650063  0.58470791  0.91742712     0.08500
H119        H  0.70945180  0.58175208  0.89369134     0.06000
H120        H  0.73838028  0.52621790  0.94486759     0.05900
C121        C  0.27686613  0.22256714  0.74876591     0.80000
N122        N  0.27525952  0.23860007  0.76886255    -0.78300
C123        C  0.25852151  0.25762181  0.76870590     0.82500
N124        N  0.24333215  0.26056119  0.74810735    -0.78200
C125        C  0.24464708  0.24480424  0.72781623     0.82600
N126        N  0.26145887  0.22578941  0.72830896    -0.80000
C127        C  0.28721103  0.41887898  0.93140270     0.02900
C128        C  0.28607625  0.39927532  0.91345471    -0.13200
C129        C  0.26327592  0.38774053  0.90733275     0.00400
C130        C  0.24122547  0.39565533  0.91935433    -0.11800
C131        C  0.24129138  0.41531771  0.93700904     0.02900
C132        C  0.26448417  0.42696873  0.94319860    -0.11200
H133        H  0.30288653  0.39354434  0.90329983     0.08500
H134        H  0.22360655  0.38653330  0.91465289     0.06000
H135        H  0.26476905  0.44225387  0.95671858     0.05900
C136        C  0.43320066  0.05853841  0.78116757     0.02900
C137        C  0.41257410  0.07468215  0.77889715    -0.13200
C138        C  0.40720134  0.08664743  0.75590509     0.00400
C139        C  0.42220390  0.08164647  0.73447309    -0.11800
C140        C  0.44313692  0.06564587  0.73584526     0.02900
C141        C  0.44840331  0.05394795  0.75943174    -0.11200
H142        H  0.40040555  0.07791154  0.79519136     0.08500
H143        H  0.41759573  0.09060030  0.71664283     0.06000
H144        H  0.46467980  0.04203006  0.76114990     0.05900
C145        C  0.07046843  0.23063170  0.57960492     0.02900
C146        C  0.09214570  0.23167478  0.59496537    -0.13200
C147        C  0.10573318  0.25382598  0.59825169     0.00400
C148        C  0.09755235  0.27535666  0.58585647    -0.11800
C149        C  0.07598425  0.27512394  0.57022291     0.02900
C150        C  0.06253559  0.25260870  0.56723398    -0.11200
H151        H  0.09883582  0.21503634  0.60423072     0.08500
H152        H  0.10855889  0.29220528  0.58782110     0.06000
H153        H  0.04566748  0.25237506  0.55568203     0.05900
O154        O  0.47631238  0.00471488  0.97220773    -0.80300
O155        O  0.47256336  0.99321121  0.04303619    -0.80400
O156        O  0.49590774  0.93636755  0.98177201    -0.80400
O157        O  0.49321197  0.03929882  0.01687181    -0.80300
O158        O  0.46809021  0.95396302  0.00743867    -0.80400
O159        O  0.49847599  0.05136901  0.97711063    -0.80400
O160        O  0.50334091  0.01496905  0.05903705    -0.80300
O161        O  0.49745638  0.97608037  0.95058883    -0.80400
C162        C  0.47897439  0.99123610  0.95238702     1.09300
C163        C  0.48140356  0.00607776  0.06125976     1.09200
C164        C  0.47400485  0.93726662  0.99132995     1.09400
C165        C  0.49045315  0.05596945  0.99947300     1.09200
O166        O  0.54195455  0.03387538  0.99718090    -0.80300
O167        O  0.51439496  0.93419616  0.02644687    -0.80400
O168        O  0.54960549  0.98515362  0.96623026    -0.80400
O169        O  0.54935889  0.99496645  0.04264981    -0.80300
O170        O  0.51973278  0.97148418  0.06002104    -0.80400
O171        O  0.52481145  0.01408331  0.95266869    -0.80400
O172        O  0.53908873  0.04586063  0.03736968    -0.80300
O173        O  0.54543052  0.94481579  0.00025112    -0.80400
Co174      Co  0.50766228  0.01819579  0.98667470     1.51500
Co175      Co  0.49408897  0.96487992  0.03234997     1.51700
Co176      Co  0.52221617  0.96229430  0.97661550     1.51600
Co177      Co  0.52292897  0.01564496  0.02649435     1.51500
O178        O  0.51167606  0.98584494  0.00553593    -1.42300
C179        C  0.54631382  0.05031878  0.01467885     1.09300
C180        C  0.53629014  0.93065716  0.01731442     1.09400
C181        C  0.54324913  0.99976476  0.94858783     1.09300
C182        C  0.54150169  0.98158154  0.06105790     1.09300
C183        C  0.26503000  0.73635068  0.77160148     0.80000
N184        N  0.26484211  0.75430256  0.75341136    -0.78300
C185        C  0.24607691  0.75549883  0.73590153     0.82500
N186        N  0.22734252  0.73838158  0.73667647    -0.78200
C187        C  0.22710465  0.72023963  0.75461475     0.82600
N188        N  0.24603166  0.71933860  0.77211807    -0.80000
C189        C  0.43061170  0.72168562  0.93577694     0.02900
C190        C  0.41177512  0.71958862  0.91686751    -0.13200
C191        C  0.39843045  0.74042703  0.90852897     0.00400
C192        C  0.40371661  0.76364962  0.91941245    -0.11800
C193        C  0.42261529  0.76662963  0.93789672     0.02900
C194        C  0.43595184  0.74544766  0.94619742    -0.11200
H195        H  0.40810300  0.70182968  0.90778435     0.08500
H196        H  0.39297608  0.77962910  0.91328889     0.06000
H197        H  0.45054307  0.74749731  0.96046979     0.05900
C198        C  0.21724083  0.91764673  0.57378299     0.02900
C199        C  0.21840399  0.90036307  0.59395409    -0.13200
C200        C  0.24042193  0.88681093  0.59894568     0.00400
C201        C  0.26186143  0.89099245  0.58392110    -0.11800
C202        C  0.26173001  0.90846741  0.56414033     0.02900
C203        C  0.23918257  0.92135474  0.55888537    -0.11200
H204        H  0.20246809  0.89791813  0.60655894     0.08500
H205        H  0.27900908  0.88102015  0.58816777     0.06000
H206        H  0.23887192  0.93422193  0.54310858     0.05900
C207        C  0.06049296  0.56322111  0.77620522     0.02900
C208        C  0.07847625  0.58253670  0.77592980    -0.13200
C209        C  0.09107151  0.58917097  0.75352384     0.00400
C210        C  0.08503504  0.57689110  0.73076733    -0.11800
C211        C  0.06594409  0.55876368  0.72972587     0.02900
C212        C  0.05407273  0.55154422  0.75273467    -0.11200
H213        H  0.08245347  0.59300874  0.79316519     0.08500
H214        H  0.09537796  0.58159633  0.71361709     0.06000
H215        H  0.03983669  0.53716412  0.75228692     0.05900
C216        C  0.73823764  0.26717251  0.23517320     0.80000
N217        N  0.75453761  0.26897604  0.25513196    -0.78300
C218        C  0.75432571  0.25181907  0.27405889     0.82500
N219        N  0.73768210  0.23269884  0.27274860    -0.78200
C220        C  0.72128305  0.23056367  0.25299201     0.82600
N221        N  0.72168368  0.24789305  0.23424997    -0.80000
C222        C  0.92154601  0.27600606  0.43447896     0.02900
C223        C  0.90048955  0.27602409  0.41815663    -0.13200
C224        C  0.89163090  0.25414385  0.40671575     0.00400
C225        C  0.90371226  0.23171152  0.41226664    -0.11800
C226        C  0.92400045  0.23068047  0.42946126     0.02900
C227        C  0.93310778  0.25307739  0.44032426    -0.11200
H228        H  0.89060955  0.29322658  0.41461277     0.08500
H229        H  0.89747301  0.21486209  0.40279839     0.06000
H230        H  0.94902678  0.25265157  0.45318934     0.05900
C231        C  0.78616482  0.40492191  0.05842414     0.02900
C232        C  0.76598172  0.41717772  0.04625862    -0.13200
C233        C  0.74106088  0.41379973  0.05513107     0.00400
C234        C  0.73690674  0.39840906  0.07643920    -0.11800
C235        C  0.75670313  0.38584836  0.08825852     0.02900
C236        C  0.78111828  0.38905843  0.07895314    -0.11200
H237        H  0.76964503  0.42917378  0.03014199     0.08500
H238        H  0.71811795  0.39648356  0.08422830     0.06000
H239        H  0.79642007  0.37883849  0.08760131     0.05900
C240        C  0.58740586  0.04449692  0.23325720     0.02900
C241        C  0.60118242  0.06687889  0.23130485    -0.13200
C242        C  0.60450238  0.08266195  0.25232831     0.00400
C243        C  0.59246380  0.07712817  0.27535210    -0.11800
C244        C  0.57825499  0.05529224  0.27837518     0.02900
C245        C  0.57606507  0.03885822  0.25719925    -0.11200
H246        H  0.60961179  0.07238267  0.21343566     0.08500
H247        H  0.59402010  0.09035186  0.29092328     0.06000
H248        H  0.56595872  0.02160236  0.25962426     0.05900
O249        O  0.94555467  0.48516833  0.98210598    -0.80300
O250        O  0.06056125  0.50047619  0.00547327    -0.80400
O251        O  0.99253074  0.52428002  0.01837196    -0.80400
O252        O  0.00697465  0.52278358  0.96844788    -0.80300
O253        O  0.02248438  0.50790975  0.04173723    -0.80400
O254        O  0.98139770  0.49874951  0.94657539    -0.80400
O255        O  0.05819675  0.51532705  0.96551881    -0.80300
O256        O  0.94374694  0.50513615  0.01968035    -0.80400
C257        C  0.93312298  0.49810724  0.99895040     1.09300
C258        C  0.06969275  0.51349777  0.98677345     1.09200
C259        C  0.00670080  0.52521445  0.03789466     1.09400
C260        C  0.99304645  0.51928513  0.94910922     1.09200
O261        O  0.00575294  0.45080866  0.95025415    -0.80300
O262        O  0.01180263  0.45560716  0.04358526    -0.80400
O263        O  0.95969999  0.45828413  0.01829578    -0.80400
O264        O  0.05495672  0.46662750  0.97225062    -0.80300
O265        O  0.05073864  0.44742103  0.00842907    -0.80400
O266        O  0.97063217  0.43631676  0.98521633    -0.80400
O267        O  0.02548782  0.48337299  0.93686970    -0.80300
O268        O  0.98262769  0.48355593  0.05138250    -0.80400
Co269      Co  0.97812213  0.46782332  0.96801197     1.51500
Co270      Co  0.03387031  0.47733785  0.02272392     1.51700
Co271      Co  0.97654880  0.49139256  0.01428133     1.51600
Co272      Co  0.03030783  0.49497074  0.97358188     1.51500
O273        O  0.00538423  0.47745189  0.99513183    -1.42300
C274        C  0.01444792  0.46301675  0.93180179     1.09300
C275        C  0.99632620  0.46568730  0.05889539     1.09400
C276        C  0.95910948  0.43811621  0.00605666     1.09300
C277        C  0.06198088  0.44984646  0.98734470     1.09300
C278        C  0.22283169  0.05917496  0.42028273     0.02900
C279        C  0.24600197  0.05263817  0.43198134    -0.13200
C280        C  0.26833144  0.06591925  0.42646088     0.00400
C281        C  0.26734031  0.08558943  0.40904549    -0.11800
C282        C  0.24479218  0.09244425  0.39741168     0.02900
C283        C  0.22261248  0.07981960  0.40370066    -0.11200
H284        H  0.24705129  0.03679657  0.44453473     0.08500
H285        H  0.28431479  0.09587973  0.40455600     0.06000
H286        H  0.20527334  0.08599173  0.39503929     0.05900
C287        C  0.23400761  0.26703182  0.25015987     0.80000
N288        N  0.25284355  0.26700204  0.23262780    -0.78300
C289        C  0.27054837  0.24892179  0.23233108     0.82500
N290        N  0.26923698  0.23053446  0.24987934    -0.78200
C291        C  0.25058986  0.23013489  0.26769246     0.82600
N292        N  0.23296738  0.24850239  0.26775734    -0.80000
C293        C  0.07947329  0.43244982  0.27291228     0.02900
C294        C  0.09818157  0.41420644  0.27050668    -0.13200
C295        C  0.10174509  0.40120811  0.24752713     0.00400
C296        C  0.08693161  0.40730389  0.22629211    -0.11800
C297        C  0.06804102  0.42559500  0.22812389     0.02900
C298        C  0.06446563  0.43801973  0.25159793    -0.11200
H299        H  0.11027773  0.41017191  0.28658601     0.08500
H300        H  0.09001067  0.39757770  0.20840825     0.06000
H301        H  0.04945699  0.45146622  0.25352983     0.05900
C302        C  0.43388108  0.22303263  0.06736319     0.02900
C303        C  0.44547203  0.24610655  0.06177768    -0.13200
C304        C  0.43666887  0.26822925  0.07331755     0.00400
C305        C  0.41672033  0.26686307  0.09084728    -0.11800
C306        C  0.40466960  0.24440512  0.09622144     0.02900
C307        C  0.41323429  0.22264200  0.08433161    -0.11200
H308        H  0.46114665  0.24687239  0.04857819     0.08500
H309        H  0.41065634  0.28354768  0.10073428     0.06000
H310        H  0.40344537  0.20537354  0.08802632     0.05900
C311        C  0.76794269  0.27121951  0.74775198     0.80000
N312        N  0.76746090  0.25226099  0.73040952    -0.78300
C313        C  0.75025523  0.23363366  0.73228096     0.82500
N314        N  0.73339288  0.23416191  0.75176088    -0.78200
C315        C  0.73343783  0.25281505  0.76934450     0.82600
N316        N  0.75084554  0.27133486  0.76725507    -0.80000
C317        C  0.91745872  0.44485570  0.71780217     0.02900
C318        C  0.90174814  0.42364905  0.71677562    -0.13200
C319        C  0.89777150  0.40889045  0.73842644     0.00400
C320        C  0.91109640  0.41432238  0.76087370    -0.11800
C321        C  0.92695784  0.43524718  0.76271342     0.02900
C322        C  0.92942463  0.45069874  0.74119631    -0.11200
H323        H  0.89227515  0.41854274  0.69925290     0.08500
H324        H  0.90912121  0.40180934  0.77684379     0.06000
H325        H  0.94032125  0.46757692  0.74291158     0.05900
C326        C  0.57661186  0.21846051  0.93780721     0.02900
C327        C  0.56112328  0.23904176  0.94323757    -0.13200
C328        C  0.56527280  0.26208455  0.93126517     0.00400
C329        C  0.58562353  0.26431288  0.91408077    -0.11800
C330        C  0.60065500  0.24383981  0.90774680     0.02900
C331        C  0.59610034  0.22105972  0.91974721    -0.11200
H332        H  0.54536605  0.23679037  0.95613424     0.08500
H333        H  0.58965288  0.28194453  0.90511688     0.06000
H334        H  0.60824095  0.20547199  0.91536653     0.05900
C335        C  0.77360608  0.06169481  0.57827494     0.02900
C336        C  0.75097043  0.05637796  0.56489671    -0.13200
C337        C  0.72842967  0.06951432  0.57025857     0.00400
C338        C  0.72935572  0.08883173  0.58854450    -0.11800
C339        C  0.75105644  0.09369173  0.60273716     0.02900
C340        C  0.77281268  0.07987391  0.59786077    -0.11200
H341        H  0.75088153  0.04205461  0.55041501     0.08500
H342        H  0.71319531  0.10060151  0.59183826     0.06000
H343        H  0.78899204  0.08331284  0.60987002     0.05900
C344        C  0.74848256  0.74216040  0.24538065     0.80000
N345        N  0.74789263  0.75810472  0.26544903    -0.78300
C346        C  0.76664379  0.75871717  0.28303371     0.82500
N347        N  0.78651762  0.74285395  0.28035377    -0.78200
C348        C  0.78740336  0.72667708  0.26015793     0.82600
N349        N  0.76831649  0.72656237  0.24286898    -0.80000
C350        C  0.73057309  0.92993261  0.43470567     0.02900
C351        C  0.75146039  0.94612978  0.43658346    -0.13200
C352        C  0.77466649  0.94021195  0.42472724     0.00400
C353        C  0.77641093  0.91780904  0.41073410    -0.11800
C354        C  0.75575674  0.90174985  0.40815113     0.02900
C355        C  0.73314957  0.90779003  0.42052121    -0.11200
H356        H  0.74942583  0.96350339  0.44684605     0.08500
H357        H  0.79396709  0.91265610  0.40171598     0.06000
H358        H  0.71760090  0.89480530  0.41946447     0.05900
C359        C  0.94793606  0.56685380  0.21485242     0.02900
C360        C  0.93083011  0.58669131  0.21710422    -0.13200
C361        C  0.92022859  0.59349285  0.24073898     0.00400
C362        C  0.92756363  0.58023791  0.26250345    -0.11800
C363        C  0.94583646  0.56133501  0.26129992     0.02900
C364        C  0.95576204  0.55443239  0.23720354    -0.11200
H365        H  0.92606797  0.59706657  0.20015205     0.08500
H366        H  0.91875625  0.58435700  0.28067869     0.06000
H367        H  0.96939244  0.53956130  0.23584412     0.05900
C368        C  0.58426902  0.76218413  0.08166093     0.02900
C369        C  0.60308947  0.76292923  0.10043092    -0.13200
C370        C  0.61188295  0.74115097  0.11179273     0.00400
C371        C  0.60143125  0.71829645  0.10440796    -0.11800
C372        C  0.58273075  0.71675784  0.08542212     0.02900
C373        C  0.57427793  0.73899223  0.07396149    -0.11200
H374        H  0.61129351  0.78062795  0.10586428     0.08500
H375        H  0.60749295  0.70164854  0.11410977     0.06000
H376        H  0.55994160  0.73834357  0.05929681     0.05900
C377        C  0.23563918  0.75655298  0.25128703     0.80000
N378        N  0.23547272  0.73997800  0.23162864    -0.78300
C379        C  0.25381278  0.74030390  0.21345422     0.82500
N380        N  0.27261575  0.75745076  0.21518708    -0.78200
C381        C  0.27312010  0.77409484  0.23483126     0.82600
N382        N  0.25452395  0.77349345  0.25268060    -0.80000
C383        C  0.43607334  0.93078430  0.27426218     0.02900
C384        C  0.44010043  0.94678049  0.25341498    -0.13200
C385        C  0.42882087  0.94188963  0.22942345     0.00400
C386        C  0.41324498  0.92077530  0.22677263    -0.11800
C387        C  0.40848631  0.90517232  0.24750989     0.02900
C388        C  0.42054376  0.90988360  0.27078432    -0.11200
H389        H  0.45134589  0.96335405  0.25612567     0.08500
H390        H  0.40435231  0.91656384  0.20867233     0.06000
H391        H  0.41752175  0.89711591  0.28640599     0.05900
C392        C  0.07220832  0.77803617  0.41767436     0.02900
C393        C  0.08955708  0.77822818  0.39709375    -0.13200
C394        C  0.10326020  0.75695637  0.39018822     0.00400
C395        C  0.09918874  0.73493217  0.40360212    -0.11800
C396        C  0.08118796  0.73336571  0.42317819     0.02900
C397        C  0.06826892  0.75519492  0.43066761    -0.11200
H398        H  0.09198523  0.79466430  0.38559796     0.08500
H399        H  0.11012472  0.71865951  0.39857240     0.06000
H400        H  0.05493945  0.75410611  0.44622918     0.05900
C401        C  0.23483561  0.58505565  0.04134160     0.02900
C402        C  0.23371851  0.60522202  0.05840129    -0.13200
C403        C  0.25563948  0.61431010  0.07019114     0.00400
C404        C  0.27888031  0.60341343  0.06422405    -0.11800
C405        C  0.28027095  0.58279224  0.04768912     0.02900
C406        C  0.25814792  0.57402169  0.03612859    -0.11200
H407        H  0.21567286  0.61334023  0.06317396     0.08500
H408        H  0.29573597  0.61047142  0.07331136     0.06000
H409        H  0.25882422  0.55795693  0.02364215     0.05900
O410        O  0.98838489  0.95509212  0.52262934    -0.80300
O411        O  0.02353908  0.05599622  0.51015238    -0.80400
O412        O  0.03322762  0.98743053  0.53385224    -0.80400
O413        O  0.96316984  0.00278533  0.53964300    -0.80300
O414        O  0.05379173  0.01488137  0.51038686    -0.80400
O415        O  0.94546805  0.97842826  0.51181050    -0.80400
O416        O  0.99820136  0.04250992  0.54041291    -0.80300
O417        O  0.02567472  0.93994745  0.51346750    -0.80400
C418        C  0.00428874  0.93715173  0.52392195     1.09300
C419        C  0.01340736  0.05871969  0.53190232     1.09200
C420        C  0.05296290  0.00007491  0.52950820     1.09400
C421        C  0.94399346  0.99059928  0.53257267     1.09200
O422        O  0.96132040  0.99377676  0.46286920    -0.80300
O423        O  0.03559447  0.00339885  0.45864821    -0.80400
O424        O  0.00518607  0.95686719  0.46948252    -0.80400
O425        O  0.97825789  0.05798896  0.49241443    -0.80300
O426        O  0.00383886  0.04508786  0.46153030    -0.80400
O427        O  0.96681550  0.94376440  0.47718993    -0.80400
O428        O  0.94500180  0.02037129  0.49071446    -0.80300
O429        O  0.05016983  0.97564565  0.48429036    -0.80400
Co430      Co  0.97749361  0.97551722  0.49114005     1.51500
Co431      Co  0.02736683  0.02814280  0.48543884     1.51700
Co432      Co  0.01720054  0.97332897  0.50317492     1.51600
Co433      Co  0.97297985  0.02914954  0.51549895     1.51500
O434        O  0.99885999  0.00618735  0.49884066    -1.42300
C435        C  0.94336714  0.00787431  0.46992513     1.09300
C436        C  0.05327149  0.98902921  0.46476473     1.09400
C437        C  0.98821124  0.93993775  0.46693996     1.09300
C438        C  0.98755270  0.06028829  0.47020388     1.09300
C439        C  0.99530689  0.91599748  0.45442626    -0.01500
C440        C  0.98348404  0.89364007  0.46111128    -0.09500
C441        C  0.99422992  0.87060815  0.45451573    -0.18400
C442        C  0.01741428  0.86919674  0.44112656     0.04000
C443        C  0.02865642  0.89196485  0.43346688     0.18200
C444        C  0.01746325  0.91483727  0.43982759    -0.19800
C445        C  0.05169718  0.89192245  0.42050553    -0.21000
C446        C  0.06435329  0.86982468  0.41573303    -0.19600
C447        C  0.05412984  0.84705573  0.42335384     0.19600
C448        C  0.03029910  0.84625931  0.43566877     0.01700
C449        C  0.02071445  0.82256840  0.44213837    -0.14300
C450        C  0.03412761  0.80072107  0.43645099    -0.12000
C451        C  0.05793607  0.80149046  0.42461073     0.01300
C452        C  0.06778856  0.82510486  0.41864547    -0.24200
H453        H  0.96666946  0.89391085  0.47281648     0.09300
H454        H  0.98451878  0.85423562  0.46104746     0.12800
H455        H  0.02693566  0.93194508  0.43463605     0.11600
H456        H  0.06033085  0.90920278  0.41454629     0.12800
H457        H  0.08237945  0.87057524  0.40605650     0.11800
H458        H  0.00265926  0.82032487  0.45125181     0.08900
H459        H  0.02537423  0.78316364  0.44101563     0.12100
H460        H  0.08639319  0.82672553  0.41040514     0.14000
C461        C  0.25324085  0.72199963  0.19209092    -0.01500
C462        C  0.23480595  0.70334700  0.19149695    -0.09500
C463        C  0.23411442  0.68584573  0.17177275    -0.18400
C464        C  0.25194239  0.68631850  0.15172491     0.04000
C465        C  0.27047026  0.70540086  0.15217349     0.18200
C466        C  0.27098526  0.72291697  0.17221797    -0.19800
C467        C  0.28843400  0.70684583  0.13265209    -0.21000
C468        C  0.28855173  0.68960878  0.11276410    -0.19600
C469        C  0.27074106  0.67044712  0.11190748     0.19600
C470        C  0.25211399  0.66854199  0.13133464     0.01700
C471        C  0.23461710  0.64878923  0.12958803    -0.14300
C472        C  0.23564897  0.63166952  0.10954830    -0.12000
C473        C  0.25405846  0.63355316  0.09051312     0.01300
C474        C  0.27155649  0.65303947  0.09180641    -0.24200
H475        H  0.22078586  0.70210965  0.20646218     0.09300
H476        H  0.21932437  0.67215337  0.17284820     0.12800
H477        H  0.28529962  0.73729207  0.17229369     0.11600
H478        H  0.30256740  0.72138282  0.13280679     0.12800
H479        H  0.30277612  0.69120446  0.09800647     0.11800
H480        H  0.22000263  0.64583757  0.14355219     0.08900
H481        H  0.22226191  0.61647824  0.10927998     0.12100
H482        H  0.28584363  0.65466117  0.07709529     0.14000
C483        C  0.21548443  0.75622103  0.27104780    -0.01500
C484        C  0.19829040  0.73648741  0.27225885    -0.09500
C485        C  0.17939980  0.73601206  0.29087537    -0.18400
C486        C  0.17691445  0.75546787  0.30900441     0.04000
C487        C  0.19432131  0.77549523  0.30765470     0.18200
C488        C  0.21331314  0.77566295  0.28891242    -0.19800
C489        C  0.19272639  0.79527218  0.32505526    -0.21000
C490        C  0.17429340  0.79556641  0.34393704    -0.19600
C491        C  0.15694880  0.77608740  0.34595253     0.19600
C492        C  0.15792990  0.75576775  0.32846858     0.01700
C493        C  0.13993220  0.73661365  0.33136102    -0.14300
C494        C  0.12213822  0.73738633  0.35100922    -0.12000
C495        C  0.12147223  0.75722268  0.36847938     0.01300
C496        C  0.13879004  0.77669388  0.36557834    -0.24200
H497        H  0.19949505  0.72115676  0.25883359     0.09300
H498        H  0.16706517  0.72012330  0.29055780     0.12800
H499        H  0.22638150  0.79112687  0.28821217     0.11600
H500        H  0.20590232  0.81062633  0.32410833     0.12800
H501        H  0.17367652  0.81112004  0.35715202     0.11800
H502        H  0.13916092  0.72068648  0.31884751     0.08900
H503        H  0.10872610  0.72229328  0.35252407     0.12100
H504        H  0.13856774  0.79205195  0.37906062     0.14000
C505        C  0.29360783  0.79282270  0.23708366    -0.01500
C506        C  0.29415023  0.80888835  0.25822698    -0.09500
C507        C  0.31279852  0.82689904  0.26077434    -0.18400
C508        C  0.33179178  0.82970415  0.24211009     0.04000
C509        C  0.33155281  0.81320447  0.22081054     0.18200
C510        C  0.31257737  0.79498997  0.21847851    -0.19800
C511        C  0.35017715  0.81511282  0.20195074    -0.21000
C512        C  0.36887138  0.83323406  0.20365434    -0.19600
C513        C  0.36940685  0.84997058  0.22423126     0.19600
C514        C  0.35089633  0.84835176  0.24381128     0.01700
C515        C  0.35216311  0.86564666  0.26417235    -0.14300
C516        C  0.37092874  0.88366414  0.26511517    -0.12000
C517        C  0.38914934  0.88528716  0.24588318     0.01300
C518        C  0.38824829  0.86842280  0.22535863    -0.24200
H519        H  0.27999103  0.80765645  0.27305891     0.09300
H520        H  0.31168621  0.83836815  0.27767727     0.12800
H521        H  0.31252267  0.78263251  0.20205352     0.11600
H522        H  0.35022681  0.80256032  0.18569295     0.12800
H523        H  0.38293402  0.83425298  0.18868490     0.11800
H524        H  0.33883021  0.86595212  0.27969815     0.08900
H525        H  0.37094972  0.89676382  0.28090230     0.12100
H526        H  0.40232595  0.86955353  0.21039691     0.14000
C527        C  0.79750734  0.95656688  0.42736752    -0.01500
C528        C  0.81598407  0.95704597  0.40807829    -0.09500
C529        C  0.83923187  0.96866091  0.41196777    -0.18400
C530        C  0.84475202  0.98087215  0.43521454     0.04000
C531        C  0.82506154  0.98293112  0.45353311     0.18200
C532        C  0.80195821  0.97053786  0.44970209    -0.19800
C533        C  0.82885740  0.99671194  0.47595447    -0.21000
C534        C  0.85211787  0.00752539  0.48106974    -0.19600
C535        C  0.87253476  0.00380829  0.46453193     0.19600
C536        C  0.86919526  0.99054843  0.44126529     0.01700
C537        C  0.89080315  0.98615753  0.42598123    -0.14300
C538        C  0.91487853  0.99321827  0.43433872    -0.12000
C539        C  0.91813913  0.00565387  0.45768784     0.01300
C540        C  0.89659327  0.01189868  0.47200946    -0.24200
H541        H  0.81276292  0.94795795  0.38988541     0.09300
H542        H  0.85256360  0.96777000  0.39645271     0.12800
H543        H  0.78797928  0.97090529  0.46476421     0.11600
H544        H  0.81383411  0.99888130  0.48980577     0.12800
H545        H  0.85445300  0.01790075  0.49870126     0.11800
H546        H  0.88986880  0.97592344  0.40825375     0.08900
H547        H  0.93109450  0.98796930  0.42299712     0.12100
H548        H  0.89868874  0.02120978  0.49030670     0.14000
C549        C  0.63191904  0.74224180  0.13153040    -0.01500
C550        C  0.63136196  0.76043211  0.15075206    -0.09500
C551        C  0.64989202  0.76127392  0.16962663    -0.18400
C552        C  0.66976063  0.74380959  0.16987580     0.04000
C553        C  0.67045353  0.72564646  0.15006716     0.18200
C554        C  0.65165459  0.72500792  0.13124946    -0.19800
C555        C  0.68987403  0.70815597  0.14915280    -0.21000
C556        C  0.70865496  0.70819882  0.16759405    -0.19600
C557        C  0.70842660  0.72565983  0.18749141     0.19600
C558        C  0.68894269  0.74368209  0.18900382     0.01700
C559        C  0.68946923  0.76068651  0.20967474    -0.14300
C560        C  0.70861329  0.75993306  0.22786669    -0.12000
C561        C  0.72795785  0.74232778  0.22617530     0.01300
C562        C  0.72764086  0.72517488  0.20590528    -0.24200
H563        H  0.61624111  0.77387846  0.15147337     0.09300
H564        H  0.64806117  0.77576103  0.18372390     0.12800
H565        H  0.65249101  0.71114247  0.11617729     0.11600
H566        H  0.69053909  0.69431170  0.13406040     0.12800
H567        H  0.72343291  0.69440731  0.16632347     0.11800
H568        H  0.67538327  0.77476245  0.21240351     0.08900
H569        H  0.70825647  0.77341454  0.24329568     0.12100
H570        H  0.74238720  0.71136947  0.20438100     0.14000
C571        C  0.80872491  0.70912987  0.25645130    -0.01500
C572        C  0.81223490  0.69773915  0.23253503    -0.09500
C573        C  0.83082093  0.67985115  0.22874875    -0.18400
C574        C  0.84663440  0.67239986  0.24894180     0.04000
C575        C  0.84387316  0.68472349  0.27290548     0.18200
C576        C  0.82505082  0.70288500  0.27645825    -0.19800
C577        C  0.85971962  0.67858490  0.29324519    -0.21000
C578        C  0.87812836  0.66040517  0.29035214    -0.19600
C579        C  0.88081711  0.64744923  0.26722219     0.19600
C580        C  0.86494953  0.65308706  0.24625408     0.01700
C581        C  0.86765706  0.63868039  0.22375160    -0.14300
C582        C  0.88527600  0.61950950  0.22218131    -0.12000
C583        C  0.90139899  0.61420645  0.24266954     0.01300
C584        C  0.89908084  0.62862606  0.26509401    -0.24200
H585        H  0.80038202  0.70254391  0.21649868     0.09300
H586        H  0.83228469  0.67219231  0.20975333     0.12800
H587        H  0.82273420  0.71168459  0.29498596     0.11600
H588        H  0.85785811  0.68790271  0.31155129     0.12800
H589        H  0.89007190  0.65614106  0.30649836     0.11800
H590        H  0.85594473  0.64127049  0.20720910     0.08900
H591        H  0.88577204  0.60848316  0.20485055     0.12100
H592        H  0.91152425  0.62533825  0.28107503     0.14000
C593        C  0.76533083  0.77747781  0.30403699    -0.01500
C594        C  0.78533935  0.78136030  0.32102816    -0.09500
C595        C  0.78432958  0.80040996  0.33942135    -0.18400
C596        C  0.76318031  0.81633622  0.34132723     0.04000
C597        C  0.74270134  0.81178216  0.32452365     0.18200
C598        C  0.74390670  0.79257731  0.30638027    -0.19800
C599        C  0.72119737  0.82671183  0.32549368    -0.21000
C600        C  0.71969733  0.84649608  0.34251400    -0.19600
C601        C  0.73965865  0.85187715  0.35902005     0.19600
C602        C  0.76164621  0.83682278  0.35888638     0.01700
C603        C  0.78120067  0.84327890  0.37601319    -0.14300
C604        C  0.77914476  0.86402163  0.39214002    -0.12000
C605        C  0.75755924  0.87897703  0.39189758     0.01300
C606        C  0.73782367  0.87255514  0.37538334    -0.24200
H607        H  0.80205511  0.76994525  0.31983666     0.09300
H608        H  0.80050855  0.80242216  0.35163813     0.12800
H609        H  0.72807617  0.78976797  0.29364509     0.11600
H610        H  0.70549891  0.82324104  0.31275752     0.12800
H611        H  0.70287574  0.85784656  0.34257106     0.11800
H612        H  0.79838672  0.83278488  0.37724583     0.08900
H613        H  0.79454407  0.86832386  0.40495524     0.12100
H614        H  0.72116908  0.88413423  0.37473451     0.14000
C615        C  0.79816976  0.04879647  0.57211007    -0.01500
C616        C  0.79914257  0.02500377  0.56078964    -0.09500
C617        C  0.82226885  0.01339820  0.55533680    -0.18400
C618        C  0.84545891  0.02486369  0.56169353     0.04000
C619        C  0.84439555  0.04857023  0.57365993     0.18200
C620        C  0.82124756  0.06044286  0.57785791    -0.19800
C621        C  0.86650211  0.06051828  0.58147807    -0.21000
C622        C  0.88979363  0.04960575  0.57742330    -0.19600
C623        C  0.89172180  0.02679104  0.56470480     0.19600
C624        C  0.86967116  0.01400229  0.55653265     0.01700
C625        C  0.87303718  0.99147665  0.54284337    -0.14300
C626        C  0.89721597  0.98292439  0.53636298    -0.12000
C627        C  0.91885707  0.99599747  0.54405003     0.01300
C628        C  0.91577448  0.01741959  0.55906795    -0.24200
H629        H  0.78204972  0.01496638  0.55635579     0.09300
H630        H  0.82144955  0.99523306  0.54659166     0.12800
H631        H  0.82153866  0.07914379  0.58550087     0.11600
H632        H  0.86578626  0.07848442  0.59089147     0.12800
H633        H  0.90651080  0.05946553  0.58366173     0.11800
H634        H  0.85730895  0.98077233  0.53581059     0.08900
H635        H  0.89894007  0.96651806  0.52443064     0.12100
H636        H  0.93221446  0.02799686  0.56483788     0.14000
C637        C  0.75085197  0.11346330  0.62267506    -0.01500
C638        C  0.73198055  0.11393090  0.64136899    -0.09500
C639        C  0.73117890  0.13285726  0.65975743    -0.18400
C640        C  0.74914537  0.15230838  0.65980774     0.04000
C641        C  0.76813137  0.15181108  0.64062273     0.18200
C642        C  0.76899369  0.13236621  0.62256605    -0.19800
C643        C  0.78601007  0.17087611  0.63937339    -0.21000
C644        C  0.78552889  0.19047544  0.65677807    -0.19600
C645        C  0.76732113  0.19141802  0.67609376     0.19600
C646        C  0.74890341  0.17230813  0.67799130     0.01700
C647        C  0.73114330  0.17407522  0.69805023    -0.14300
C648        C  0.73166767  0.19390300  0.71538811    -0.12000
C649        C  0.74981565  0.21277795  0.71345339     0.01300
C650        C  0.76754907  0.21136199  0.69360825    -0.24200
H651        H  0.71779810  0.09945990  0.64180218     0.09300
H652        H  0.71609123  0.13187086  0.67349034     0.12800
H653        H  0.78346567  0.13224323  0.60794161     0.11600
H654        H  0.80043773  0.17069432  0.62472534     0.12800
H655        H  0.79961437  0.20496491  0.65518612     0.11800
H656        H  0.71667206  0.16033578  0.70099149     0.08900
H657        H  0.71770422  0.19434801  0.73046569     0.12100
H658        H  0.78174070  0.22573678  0.69182087     0.14000
C659        C  0.71441259  0.25265345  0.79034969    -0.01500
C660        C  0.71524678  0.26995950  0.81046859    -0.09500
C661        C  0.69723302  0.26950514  0.83008947    -0.18400
C662        C  0.67761056  0.25164456  0.83022860     0.04000
C663        C  0.67696446  0.23409477  0.80985788     0.18200
C664        C  0.69511119  0.23478376  0.79034188    -0.19800
C665        C  0.65821916  0.21581831  0.80901675    -0.21000
C666        C  0.64015221  0.21435024  0.82813792    -0.19600
C667        C  0.64018047  0.23126605  0.84850628     0.19600
C668        C  0.65868850  0.25038436  0.84977014     0.01700
C669        C  0.65726634  0.26738198  0.87045896    -0.14300
C670        C  0.63844421  0.26529806  0.88909435    -0.12000
C671        C  0.62066634  0.24607387  0.88799314     0.01300
C672        C  0.62167056  0.22916310  0.86759200    -0.24200
H673        H  0.72995477  0.28389036  0.81115367     0.09300
H674        H  0.69923392  0.28329086  0.84496104     0.12800
H675        H  0.69407634  0.22122044  0.77499475     0.11600
H676        H  0.65760825  0.20242119  0.79349638     0.12800
H677        H  0.62600977  0.19986051  0.82695986     0.11800
H678        H  0.67033923  0.28256448  0.87267430     0.08900
H679        H  0.63795705  0.27862543  0.90466157     0.12100
H680        H  0.60768330  0.21450802  0.86637721     0.14000
C681        C  0.78702912  0.29148544  0.74527912    -0.01500
C682        C  0.80420975  0.29154198  0.72485113    -0.09500
C683        C  0.82229458  0.31033741  0.72240171    -0.18400
C684        C  0.82398501  0.32989131  0.74046892     0.04000
C685        C  0.80662594  0.32974134  0.76119842     0.18200
C686        C  0.78839662  0.31083119  0.76331310    -0.19800
C687        C  0.80766131  0.34837242  0.77990621    -0.21000
C688        C  0.82577558  0.36697587  0.77875259    -0.19600
C689        C  0.84315287  0.36768224  0.75866997     0.19600
C690        C  0.84236134  0.34941489  0.73896996     0.01700
C691        C  0.85997353  0.35162299  0.71873384    -0.14300
C692        C  0.87776315  0.37091150  0.71838706    -0.12000
C693        C  0.87881658  0.38842913  0.73826610     0.01300
C694        C  0.86131517  0.38667541  0.75824468    -0.24200
H695        H  0.80377865  0.27691378  0.71057778     0.09300
H696        H  0.83485740  0.30891481  0.70628875     0.12800
H697        H  0.77536356  0.31112621  0.77925463     0.11600
H698        H  0.79450026  0.34842369  0.79573451     0.12800
H699        H  0.82618403  0.38095609  0.79372431     0.11800
H700        H  0.86039691  0.33879615  0.70286344     0.08900
H701        H  0.89101585  0.37191032  0.70269159     0.12100
H702        H  0.86164060  0.40044367  0.77344450     0.14000
C703        C  0.29038580  0.24882039  0.21236109    -0.01500
C704        C  0.29151196  0.26797677  0.19438290    -0.09500
C705        C  0.30928730  0.26762136  0.17478438    -0.18400
C706        C  0.32670744  0.24793893  0.17240383     0.04000
C707        C  0.32598357  0.22885801  0.19104385     0.18200
C708        C  0.30792014  0.22941777  0.21068057    -0.19800
C709        C  0.34328039  0.20930758  0.18996316    -0.21000
C710        C  0.36147021  0.20838829  0.17086191    -0.19600
C711        C  0.36260665  0.22681079  0.15214862     0.19600
C712        C  0.34498952  0.24666019  0.15240948     0.01700
C713        C  0.34645586  0.26435237  0.13262296    -0.14300
C714        C  0.36528537  0.26301203  0.11411900    -0.12000
C715        C  0.38331108  0.24406394  0.11456788     0.01300
C716        C  0.38151451  0.22569904  0.13336002    -0.24200
H717        H  0.27844826  0.28336725  0.19528118     0.09300
H718        H  0.30893190  0.28312769  0.16188917     0.12800
H719        H  0.30743979  0.21455622  0.22455376     0.11600
H720        H  0.34286436  0.19470600  0.20411814     0.12800
H721        H  0.37475836  0.19314806  0.17073241     0.11800
H722        H  0.33337295  0.27949660  0.13087660     0.08900
H723        H  0.36585163  0.27705981  0.09940080     0.12100
H724        H  0.39536149  0.21095380  0.13388037     0.14000
C725        C  0.21450880  0.28675937  0.24920334    -0.01500
C726        C  0.21429755  0.30366831  0.22889193    -0.09500
C727        C  0.19597528  0.32210289  0.22728786    -0.18400
C728        C  0.17710152  0.32446189  0.24614829     0.04000
C729        C  0.17756122  0.30756215  0.26695208     0.18200
C730        C  0.19599249  0.28887289  0.26818908    -0.19800
C731        C  0.15972114  0.30952083  0.28652539    -0.21000
C732        C  0.14160808  0.32809260  0.28609075    -0.19600
C733        C  0.14061210  0.34494692  0.26586931     0.19600
C734        C  0.15803953  0.34317054  0.24534372     0.01700
C735        C  0.15556991  0.36022010  0.22498760    -0.14300
C736        C  0.13711019  0.37870000  0.22548070    -0.12000
C737        C  0.12059417  0.38087706  0.24622470     0.01300
C738        C  0.12229402  0.36368342  0.26616934    -0.24200
H739        H  0.22833838  0.30265193  0.21391657     0.09300
H740        H  0.19727490  0.33436667  0.21115569     0.12800
H741        H  0.19598812  0.27607722  0.28409947     0.11600
H742        H  0.15994038  0.29675367  0.30244917     0.12800
H743        H  0.12826446  0.32928533  0.30171953     0.11800
H744        H  0.16760786  0.35979384  0.20842145     0.08900
H745        H  0.13611992  0.39169899  0.20980694     0.12100
H746        H  0.10918656  0.36485941  0.28202067     0.14000
C747        C  0.19891305  0.04455419  0.42440884    -0.01500
C748        C  0.18013228  0.04400380  0.40542747    -0.09500
C749        C  0.15683475  0.03267130  0.40960264    -0.18400
C750        C  0.15146290  0.02054298  0.43277550     0.04000
C751        C  0.17113230  0.01895229  0.45108502     0.18200
C752        C  0.19429108  0.03129064  0.44705679    -0.19800
C753        C  0.16743337  0.00522624  0.47342409    -0.21000
C754        C  0.14442311  0.99374172  0.47827989    -0.19600
C755        C  0.12407395  0.99669570  0.46159340     0.19600
C756        C  0.12727624  0.01011122  0.43853133     0.01700
C757        C  0.10582073  0.01355659  0.42291880    -0.14300
C758        C  0.08201743  0.00522755  0.43062109    -0.12000
C759        C  0.07882600  0.99256496  0.45370363     0.01300
C760        C  0.10021844  0.98747155  0.46854267    -0.24200
H761        H  0.18326759  0.05235077  0.38696035     0.09300
H762        H  0.14350093  0.03336859  0.39412326     0.12800
H763        H  0.20839648  0.03095000  0.46194546     0.11600
H764        H  0.18243594  0.00337214  0.48727927     0.12800
H765        H  0.14229110  0.98315395  0.49566325     0.11800
H766        H  0.10657561  0.02385570  0.40534313     0.08900
H767        H  0.06583955  0.00961801  0.41893253     0.12100
H768        H  0.09801499  0.97803319  0.48664759     0.14000
C769        C  0.24495273  0.11195041  0.37753261    -0.01500
C770        C  0.26217763  0.11039924  0.35735186    -0.09500
C771        C  0.26322163  0.12874480  0.33869545    -0.18400
C772        C  0.24711780  0.14961436  0.33976327     0.04000
C773        C  0.22949046  0.15101730  0.36020033     0.18200
C774        C  0.22839845  0.13214540  0.37868298    -0.19800
C775        C  0.21327984  0.17139357  0.36222754    -0.21000
C776        C  0.21427532  0.19053079  0.34449361    -0.19600
C777        C  0.23145567  0.18977074  0.32420624     0.19600
C778        C  0.24805581  0.16923497  0.32148037     0.01700
C779        C  0.26501430  0.16933945  0.30066917    -0.14300
C780        C  0.26564563  0.18904368  0.28352958    -0.12000
C781        C  0.24939589  0.20937918  0.28627486     0.01300
C782        C  0.23221732  0.20951439  0.30667465    -0.24200
H783        H  0.27491330  0.09475757  0.35595507     0.09300
H784        H  0.27699633  0.12608756  0.32385532     0.12800
H785        H  0.21507890  0.13344416  0.39433410     0.11600
H786        H  0.19982392  0.17262341  0.37775070     0.12800
H787        H  0.20154976  0.20609503  0.34671844     0.11800
H788        H  0.27811666  0.15451856  0.29705512     0.08900
H789        H  0.27901720  0.18820100  0.26792238     0.12100
H790        H  0.21951210  0.22507769  0.30906986     0.14000
C791        C  0.00517061  0.45734528  0.90569430    -0.01500
C792        C  0.01540472  0.46849814  0.88389794    -0.09500
C793        C  0.00382205  0.46547964  0.85995654    -0.18400
C794        C  0.98108507  0.45184503  0.85733274     0.04000
C795        C  0.97059502  0.44121806  0.87972432     0.18200
C796        C  0.98296655  0.44341734  0.90319894    -0.19800
C797        C  0.94734591  0.42903306  0.87885527    -0.21000
C798        C  0.93411531  0.42714329  0.85613205    -0.19600
C799        C  0.94422089  0.43657244  0.83350105     0.19600
C800        C  0.96801622  0.44869808  0.83358099     0.01700
C801        C  0.97771298  0.45670950  0.80985013    -0.14300
C802        C  0.96446680  0.45250287  0.78706581    -0.12000
C803        C  0.94077625  0.44078014  0.78711255     0.01300
C804        C  0.93067982  0.43348054  0.81071853    -0.24200
H805        H  0.03210857  0.47995825  0.88544876     0.09300
H806        H  0.01253173  0.47476099  0.84401917     0.12800
H807        H  0.97431660  0.43533768  0.91999945     0.11600
H808        H  0.93913141  0.42120433  0.89598801     0.12800
H809        H  0.91603110  0.41780062  0.85618002     0.11800
H810        H  0.99586428  0.46555645  0.80823955     0.08900
H811        H  0.97321266  0.45799506  0.76929653     0.12100
H812        H  0.91215149  0.42512623  0.81155357     0.14000
C813        C  0.99984503  0.54054674  0.06071010    -0.01500
C814        C  0.97457596  0.54682171  0.06491484    -0.09500
C815        C  0.96559672  0.55177616  0.08961881    -0.18400
C816        C  0.98169319  0.55069872  0.11113875     0.04000
C817        C  0.00774244  0.54690645  0.10654912     0.18200
C818        C  0.01653212  0.54196191  0.08158092    -0.19800
C819        C  0.02466338  0.54678178  0.12707370    -0.21000
C820        C  0.01625622  0.55019847  0.15209673    -0.19600
C821        C  0.99059707  0.55317645  0.15740755     0.19600
C822        C  0.97290641  0.55301276  0.13698998     0.01700
C823        C  0.94713644  0.55466546  0.14338941    -0.14300
C824        C  0.93939243  0.55793070  0.16869869    -0.12000
C825        C  0.95686901  0.55966562  0.18871260     0.01300
C826        C  0.98250430  0.55656533  0.18296443    -0.24200
H827        H  0.96116518  0.54585801  0.04938623     0.09300
H828        H  0.94579550  0.55569748  0.09135155     0.12800
H829        H  0.03614789  0.53718010  0.07871703     0.11600
H830        H  0.04458085  0.54391781  0.12375915     0.12800
H831        H  0.02991171  0.55017310  0.16744914     0.11800
H832        H  0.93248047  0.55349304  0.12923683     0.08900
H833        H  0.91944479  0.55957560  0.17263851     0.12100
H834        H  0.99621314  0.55766126  0.19824319     0.14000
C835        C  0.05199269  0.43148614  0.20559453    -0.01500
C836        C  0.04466357  0.45599809  0.20053613    -0.09500
C837        C  0.03098121  0.46176617  0.17855223    -0.18400
C838        C  0.02454960  0.44315475  0.16052067     0.04000
C839        C  0.03162399  0.41829574  0.16595228     0.18200
C840        C  0.04463220  0.41267479  0.18849788    -0.19800
C841        C  0.02668390  0.39927671  0.14832141    -0.21000
C842        C  0.01657430  0.40466885  0.12454428    -0.19600
C843        C  0.01032801  0.42907666  0.11820449     0.19600
C844        C  0.01280264  0.44845928  0.13661165     0.01700
C845        C  0.00431830  0.47241468  0.12979643    -0.14300
C846        C  0.99640586  0.47736449  0.10488669    -0.12000
C847        C  0.99709226  0.45879026  0.08608279     0.01300
C848        C  0.00290298  0.43445598  0.09312047    -0.24200
H849        H  0.05023228  0.47099360  0.21319463     0.09300
H850        H  0.02668440  0.48110448  0.17563075     0.12800
H851        H  0.04958826  0.39355670  0.19239624     0.11600
H852        H  0.03181398  0.38025205  0.15245612     0.12800
H853        H  0.01420444  0.38973064  0.11078813     0.11800
H854        H  0.00420275  0.48778979  0.14309745     0.08900
H855        H  0.99143264  0.49618111  0.09988599     0.12100
H856        H  0.00289379  0.41991881  0.07868898     0.14000
C857        C  0.21152463  0.57414272  0.03050576    -0.01500
C858        C  0.20853643  0.54831084  0.02958346    -0.09500
C859        C  0.18651880  0.53765604  0.02022830    -0.18400
C860        C  0.16639813  0.55257979  0.01169382     0.04000
C861        C  0.16959612  0.57879335  0.01229559     0.18200
C862        C  0.19204497  0.58929084  0.02157250    -0.19800
C863        C  0.15020561  0.59436565  0.00406401    -0.21000
C864        C  0.12738225  0.58448430  0.99584569    -0.19600
C865        C  0.12339298  0.55878843  0.99567314     0.19600
C866        C  0.14299947  0.54243864  0.00329715     0.01700
C867        C  0.13806172  0.51663794  0.00294430    -0.14300
C868        C  0.11432698  0.50761958  0.99672125    -0.12000
C869        C  0.09498335  0.52379673  0.98999277     0.01300
C870        C  0.09964823  0.54930473  0.98874415    -0.24200
H871        H  0.22310001  0.53615422  0.03672604     0.09300
H872        H  0.18578222  0.51768879  0.02037661     0.12800
H873        H  0.19433127  0.60929967  0.02193907     0.11600
H874        H  0.15256431  0.61436044  0.00436145     0.12800
H875        H  0.11258961  0.59705202  0.99001961     0.11800
H876        H  0.15184606  0.50290801  0.00797884     0.08900
H877        H  0.11090751  0.48778964  0.99754347     0.12100
H878        H  0.08449570  0.56177495  0.98363348     0.14000
C879        C  0.81286883  0.40812054  0.05059420    -0.01500
C880        C  0.83125066  0.41185420  0.06943832    -0.09500
C881        C  0.85677880  0.41179063  0.06336406    -0.18400
C882        C  0.86497574  0.40812158  0.03795959     0.04000
C883        C  0.84630087  0.40492543  0.01872805     0.18200
C884        C  0.82052529  0.40492582  0.02517307    -0.19800
C885        C  0.85349129  0.40193186  0.99316850    -0.21000
C886        C  0.87871344  0.40326277  0.98611508    -0.19600
C887        C  0.89742109  0.40729220  0.00448423     0.19600
C888        C  0.89094049  0.40874234  0.03079489     0.01700
C889        C  0.91068289  0.41209648  0.04860876    -0.14300
C890        C  0.93499963  0.41778281  0.04037846    -0.12000
C891        C  0.94046962  0.41958800  0.01428430     0.01300
C892        C  0.92223825  0.41207410  0.99653228    -0.24200
H893        H  0.82578876  0.41454916  0.08920811     0.09300
H894        H  0.86959843  0.41489576  0.07899300     0.12800
H895        H  0.80645127  0.40181956  0.01052148     0.11600
H896        H  0.83944530  0.39928247  0.97841371     0.12800
H897        H  0.88354209  0.40193195  0.96603702     0.11800
H898        H  0.90764154  0.41202962  0.06896492     0.08900
H899        H  0.94891518  0.42334251  0.05442520     0.12100
H900        H  0.92634004  0.41350074  0.97628964     0.14000
C901        C  0.93500010  0.20585961  0.43561507    -0.01500
C902        C  0.96106720  0.20205870  0.43698875    -0.09500
C903        C  0.97098239  0.17810813  0.44034011    -0.18400
C904        C  0.95502241  0.15707912  0.44245422     0.04000
C905        C  0.92862406  0.16125015  0.44186398     0.18200
C906        C  0.91901513  0.18528098  0.43861203    -0.19800
C907        C  0.91179751  0.14141043  0.44447190    -0.21000
C908        C  0.92054805  0.11743659  0.44813888    -0.19600
C909        C  0.94636670  0.11259392  0.44896210     0.19600
C910        C  0.96408524  0.13216290  0.44559428     0.01700
C911        C  0.98996616  0.12584967  0.44599856    -0.14300
C912        C  0.99778266  0.10150462  0.45125589    -0.12000
C913        C  0.98011932  0.08279718  0.45617148     0.01300
C914        C  0.95449270  0.08837225  0.45426562    -0.24200
H915        H  0.97388468  0.21754672  0.43473320     0.09300
H916        H  0.99118078  0.17658253  0.44110180     0.12800
H917        H  0.89880257  0.18796763  0.43828345     0.11600
H918        H  0.89165802  0.14449894  0.44396883     0.12800
H919        H  0.90698287  0.10257887  0.45059169     0.11800
H920        H  0.00455361  0.13948407  0.44314242     0.08900
H921        H  0.01768619  0.09772303  0.45332422     0.12100
H922        H  0.94077271  0.07401085  0.45848710     0.14000
C923        C  0.70372433  0.20911073  0.25167791    -0.01500
C924        C  0.68661393  0.20646727  0.23146349    -0.09500
C925        C  0.67030613  0.18606601  0.23019344    -0.18400
C926        C  0.67056956  0.16752799  0.24924179     0.04000
C927        C  0.68794951  0.17036965  0.26968798     0.18200
C928        C  0.70420672  0.19088482  0.27068306    -0.19800
C929        C  0.68901808  0.15276648  0.28918306    -0.21000
C930        C  0.67294512  0.13244958  0.28906135    -0.19600
C931        C  0.65549343  0.12914663  0.26936853     0.19600
C932        C  0.65416080  0.14641398  0.24896608     0.01700
C933        C  0.63642843  0.14172976  0.22933120    -0.14300
C934        C  0.62045558  0.12104541  0.23026859    -0.12000
C935        C  0.62152478  0.10451142  0.25079655     0.01300
C936        C  0.63927755  0.10861340  0.27010573    -0.24200
H937        H  0.68577413  0.22022528  0.21648500     0.09300
H938        H  0.65765154  0.18539592  0.21414604     0.12800
H939        H  0.71731450  0.19259026  0.28644760     0.11600
H940        H  0.70227862  0.15481705  0.30476906     0.12800
H941        H  0.67411433  0.11925254  0.30456610     0.11800
H942        H  0.63441537  0.15370531  0.21305252     0.08900
H943        H  0.60691808  0.11819213  0.21508184     0.12100
H944        H  0.64058695  0.09557618  0.28576188     0.14000
C945        C  0.73918575  0.28544342  0.21409196    -0.01500
C946        C  0.72130808  0.28473980  0.19442693    -0.09500
C947        C  0.72265982  0.30126798  0.17401464    -0.18400
C948        C  0.74216252  0.31910204  0.17248264     0.04000
C949        C  0.76011246  0.31988554  0.19259889     0.18200
C950        C  0.75839789  0.30329399  0.21310321    -0.19800
C951        C  0.77990560  0.33703071  0.19203316    -0.21000
C952        C  0.78247051  0.35332279  0.17174652    -0.19600
C953        C  0.76526350  0.35292722  0.15155779     0.19600
C954        C  0.74472354  0.33597273  0.15164785     0.01700
C955        C  0.72784258  0.33656056  0.13076681    -0.14300
C956        C  0.73154527  0.35293963  0.11050204    -0.12000
C957        C  0.75207684  0.36928311  0.11035371     0.01300
C958        C  0.76866952  0.36932552  0.13113697    -0.24200
H959        H  0.70618402  0.27123637  0.19467539     0.09300
H960        H  0.70828147  0.29943205  0.15964694     0.12800
H961        H  0.77240114  0.30407045  0.22812782     0.11600
H962        H  0.79363814  0.33771958  0.20731012     0.12800
H963        H  0.79813383  0.36624276  0.17177984     0.11800
H964        H  0.71173038  0.32447184  0.12938476     0.08900
H965        H  0.71855577  0.35241888  0.09458202     0.12100
H966        H  0.78435661  0.38222966  0.13143272     0.14000
C967        C  0.77273375  0.25312460  0.29535937    -0.01500
C968        C  0.77404765  0.23377566  0.31310386    -0.09500
C969        C  0.79204713  0.23392901  0.33244460    -0.18400
C970        C  0.80958642  0.25356377  0.33479218     0.04000
C971        C  0.80793841  0.27344289  0.31710849     0.18200
C972        C  0.78958600  0.27311629  0.29774810    -0.19800
C973        C  0.82495439  0.29327953  0.31853262    -0.21000
C974        C  0.84408079  0.29344152  0.33665422    -0.19600
C975        C  0.84653599  0.27388939  0.35398263     0.19600
C976        C  0.82903176  0.25389842  0.35364200     0.01700
C977        C  0.83199624  0.23494398  0.37197027    -0.14300
C978        C  0.85195611  0.23537847  0.38923778    -0.12000
C979        C  0.86974624  0.25461296  0.38894518     0.01300
C980        C  0.86664801  0.27402834  0.37142600    -0.24200
H981        H  0.76132854  0.21808097  0.31187106     0.09300
H982        H  0.79195088  0.21813881  0.34497590     0.12800
H983        H  0.78875217  0.28829243  0.28425997     0.11600
H984        H  0.82373947  0.30858172  0.30523670     0.12800
H985        H  0.85720727  0.30886787  0.33695120     0.11800
H986        H  0.81924714  0.21945126  0.37349460     0.08900
H987        H  0.85340010  0.22051801  0.40300283     0.12100
H988        H  0.88029457  0.28900244  0.37087536     0.14000
C989        C  0.04863829  0.55616546  0.80121737    -0.01500
C990        C  0.02348436  0.54827183  0.80302087    -0.09500
C991        C  0.01225636  0.54386042  0.82691705    -0.18400
C992        C  0.02570941  0.54776095  0.84997673     0.04000
C993        C  0.05117944  0.55552518  0.84796504     0.18200
C994        C  0.06243517  0.55879861  0.82397917    -0.19800
C995        C  0.06536256  0.56040094  0.86992850    -0.21000
C996        C  0.05482135  0.55780040  0.89402193    -0.19600
C997        C  0.03001506  0.54956843  0.89685350     0.19600
C998        C  0.01506872  0.54423016  0.87494093     0.01700
C999        C  0.99050694  0.53492716  0.87912504    -0.14300
C1000       C  0.98197686  0.52953435  0.90385453    -0.12000
C1001       C  0.99728652  0.53379457  0.92533744     0.01300
C1002       C  0.02071181  0.54522791  0.92159305    -0.24200
H1003       H  0.01213822  0.54614294  0.78599756     0.09300
H1004       H  0.99282896  0.53806476  0.82679165     0.12800
H1005       H  0.08216581  0.56383558  0.82318585     0.11600
H1006       H  0.08476547  0.56647771  0.86846932     0.12800
H1007       H  0.06639611  0.56168179  0.91060878     0.11800
H1008       H  0.97802679  0.53029767  0.86358692     0.08900
H1009       H  0.96395134  0.52035373  0.90601870     0.12100
H1010       H  0.03293761  0.54839839  0.93783764     0.14000
C1011       C  0.07685977  0.99328505  0.54275537    -0.01500
C1012       C  0.09944524  0.00573591  0.53721355    -0.09500
C1013       C  0.12280263  0.99561929  0.54404559    -0.18400
C1014       C  0.12444431  0.97217577  0.55604674     0.04000
C1015       C  0.10147903  0.96040508  0.56302530     0.18200
C1016       C  0.07815928  0.97117432  0.55681368    -0.19800
C1017       C  0.10182237  0.93724673  0.57500276    -0.21000
C1018       C  0.12439465  0.92495289  0.57921699    -0.19600
C1019       C  0.14732119  0.93556045  0.57182017     0.19600
C1020       C  0.14782359  0.95953412  0.56061460     0.01700
C1021       C  0.17165011  0.96938872  0.55398811    -0.14300
C1022       C  0.19388797  0.95599282  0.55828321    -0.12000
C1023       C  0.19336460  0.93204099  0.56891944     0.01300
C1024       C  0.16970132  0.92206374  0.57540474    -0.24200
H1025       H  0.09917185  0.02279710  0.52636718     0.09300
H1026       H  0.13928701  0.00603611  0.53863698     0.12800
H1027       H  0.06097573  0.96119541  0.56124750     0.11600
H1028       H  0.08441740  0.92822646  0.58053565     0.12800
H1029       H  0.12387157  0.90680857  0.58805686     0.11800
H1030       H  0.17371254  0.98750168  0.54557292     0.08900
H1031       H  0.21158736  0.96477120  0.55351584     0.12100
H1032       H  0.16842623  0.90343816  0.58296968     0.14000
C1033       C  0.20632877  0.70170724  0.75473438    -0.01500
C1034       C  0.18773620  0.70239111  0.73575106    -0.09500
C1035       C  0.16833277  0.68493369  0.73511541    -0.18400
C1036       C  0.16674236  0.66596722  0.75358370     0.04000
C1037       C  0.18525327  0.66561178  0.77318130     0.18200
C1038       C  0.20481648  0.68327882  0.77352521    -0.19800
C1039       C  0.18417483  0.64756966  0.79229058    -0.21000
C1040       C  0.16521003  0.62973257  0.79228051    -0.19600
C1041       C  0.14700090  0.62928107  0.77298955     0.19600
C1042       C  0.14752365  0.64733505  0.75328386     0.01700
C1043       C  0.12897504  0.64572068  0.73397419    -0.14300
C1044       C  0.11079714  0.62698329  0.73423737    -0.12000
C1045       C  0.11031211  0.60926361  0.75371518     0.01300
C1046       C  0.12842154  0.61065360  0.77313680    -0.24200
H1047       H  0.18816144  0.71646358  0.72106289     0.09300
H1048       H  0.15486743  0.68687047  0.71991925     0.12800
H1049       H  0.21889542  0.68260518  0.78846574     0.11600
H1050       H  0.19812343  0.64723294  0.80736490     0.12800
H1051       H  0.16493214  0.61602696  0.80735457     0.11800
H1052       H  0.12808932  0.65848690  0.71825856     0.08900
H1053       H  0.09686524  0.62648082  0.71915603     0.12100
H1054       H  0.12839171  0.59684085  0.78812093     0.14000
C1055       C  0.24583833  0.77540196  0.71632253    -0.01500
C1056       C  0.26603739  0.79204608  0.71412661    -0.09500
C1057       C  0.26585828  0.81082843  0.69579689    -0.18400
C1058       C  0.24528402  0.81369458  0.67893298     0.04000
C1059       C  0.22476276  0.79689528  0.68135190     0.18200
C1060       C  0.22525844  0.77802315  0.69977687    -0.19800
C1061       C  0.20380119  0.79898699  0.66535849    -0.21000
C1062       C  0.20279581  0.81732642  0.64681968    -0.19600
C1063       C  0.22277991  0.83398944  0.64368830     0.19600
C1064       C  0.24432218  0.83248679  0.65971330     0.01700
C1065       C  0.26399756  0.84974058  0.65561329    -0.14300
C1066       C  0.26247228  0.86739324  0.63622542    -0.12000
C1067       C  0.24134902  0.86861432  0.62026283     0.01300
C1068       C  0.22144186  0.85196947  0.62435052    -0.24200
H1069       H  0.28219456  0.79056538  0.72660756     0.09300
H1070       H  0.28209681  0.82279479  0.69535785     0.12800
H1071       H  0.20941864  0.76540117  0.70125744     0.11600
H1072       H  0.18805715  0.78629358  0.66716075     0.12800
H1073       H  0.18631344  0.81837072  0.63470995     0.11800
H1074       H  0.28088948  0.85000870  0.66693136     0.08900
H1075       H  0.27794723  0.88028391  0.63379706     0.12100
H1076       H  0.20510299  0.85259011  0.61199530     0.14000
C1077       C  0.28568065  0.73584795  0.79077941    -0.01500
C1078       C  0.30546560  0.75301645  0.78907166    -0.09500
C1079       C  0.32466084  0.75358735  0.80715552    -0.18400
C1080       C  0.32485957  0.73694315  0.82791408     0.04000
C1081       C  0.30507687  0.71919475  0.82946645     0.18200
C1082       C  0.28577864  0.71877174  0.81099255    -0.19800
C1083       C  0.30457801  0.70216321  0.84959126    -0.21000
C1084       C  0.32313161  0.70257104  0.86837678    -0.19600
C1085       C  0.34263077  0.72009040  0.86761455     0.19600
C1086       C  0.34381066  0.73748242  0.84728949     0.01700
C1087       C  0.36373087  0.75492107  0.84744930    -0.14300
C1088       C  0.38131703  0.75544598  0.86714471    -0.12000
C1089       C  0.37996366  0.73856124  0.88731619     0.01300
C1090       C  0.36077474  0.72062016  0.88725051    -0.24200
H1091       H  0.30616017  0.76633682  0.77367079     0.09300
H1092       H  0.33902494  0.76745475  0.80431498     0.12800
H1093       H  0.27068502  0.70529339  0.81257018     0.11600
H1094       H  0.28963016  0.68851060  0.85090628     0.12800
H1095       H  0.32207615  0.68923081  0.88376482     0.11800
H1096       H  0.36618334  0.76866446  0.83277071     0.08900
H1097       H  0.39619266  0.76921888  0.86659365     0.12100
H1098       H  0.35957690  0.70752399  0.90286552     0.14000
C1099       C  0.57556953  0.78609547  0.07066033    -0.01500
C1100       C  0.57626258  0.79037566  0.04430661    -0.09500
C1101       C  0.57163503  0.81416140  0.03452969    -0.18400
C1102       C  0.56595985  0.83441883  0.05095190     0.04000
C1103       C  0.56403129  0.82952411  0.07755603     0.18200
C1104       C  0.56897750  0.80570669  0.08705549    -0.19800
C1105       C  0.55741765  0.84847169  0.09466450    -0.21000
C1106       C  0.55239722  0.87224199  0.08595627    -0.19600
C1107       C  0.55440969  0.87782548  0.05998192     0.19600
C1108       C  0.56177942  0.85923417  0.04208192     0.01700
C1109       C  0.56445458  0.86639301  0.01619272    -0.14300
C1110       C  0.55839688  0.89052659  0.00828356    -0.12000
C1111       C  0.54948172  0.90809821  0.02588030     0.01300
C1112       C  0.54825678  0.90179335  0.05175131    -0.24200
H1113       H  0.58134446  0.77549276  0.03130153     0.09300
H1114       H  0.57272720  0.81618911  0.01408924     0.12800
H1115       H  0.56811800  0.80243582  0.10746519     0.11600
H1116       H  0.55586235  0.84481632  0.11494256     0.12800
H1117       H  0.54687353  0.88638360  0.09966543     0.11800
H1118       H  0.57068159  0.85360057  0.00160202     0.08900
H1119       H  0.55918166  0.89496893  0.98814511     0.12100
H1120       H  0.54133773  0.91539093  0.06542538     0.14000
C1121       C  0.45729005  0.91608417  0.98578539    -0.01500
C1122       C  0.45280519  0.89852569  0.00486812    -0.09500
C1123       C  0.44512176  0.87435320  0.99854280    -0.18400
C1124       C  0.44171854  0.86705770  0.97274923     0.04000
C1125       C  0.44412969  0.88571406  0.95373529     0.18200
C1126       C  0.45211118  0.90981148  0.96036039    -0.19800
C1127       C  0.43986952  0.87989927  0.92803628    -0.21000
C1128       C  0.43420994  0.85572354  0.92060805    -0.19600
C1129       C  0.43321710  0.83662299  0.93860897     0.19600
C1130       C  0.43683759  0.84190915  0.96497507     0.01700
C1131       C  0.43635759  0.82163028  0.98213132    -0.14300
C1132       C  0.43234742  0.79723143  0.97340812    -0.12000
C1133       C  0.42844749  0.79223031  0.94740922     0.01300
C1134       C  0.42902585  0.81215503  0.93020471    -0.24200
H1135       H  0.45718285  0.90291864  0.02459270     0.09300
H1136       H  0.44282952  0.86156268  0.01413877     0.12800
H1137       H  0.45589901  0.92330570  0.94552132     0.11600
H1138       H  0.44136359  0.89407961  0.91350012     0.12800
H1139       H  0.43127273  0.85181172  0.90049826     0.11800
H1140       H  0.43930585  0.82402448  0.00236363     0.08900
H1141       H  0.43182954  0.78227189  0.98713058     0.12100
H1142       H  0.42653591  0.80854659  0.90996447     0.14000
C1143       C  0.55449195  0.98170220  0.08635222    -0.01500
C1144       C  0.54217598  0.97115447  0.10751175    -0.09500
C1145       C  0.54937566  0.97699095  0.13249030    -0.18400
C1146       C  0.56946843  0.99349480  0.13731198     0.04000
C1147       C  0.58400484  0.00150304  0.11602519     0.18200
C1148       C  0.57625843  0.99588413  0.09082294    -0.19800
C1149       C  0.60548774  0.01606342  0.12005452    -0.21000
C1150       C  0.61205503  0.02386955  0.14457487    -0.19600
C1151       C  0.59658273  0.01842509  0.16553192     0.19600
C1152       C  0.57510591  0.00310417  0.16227120     0.01700
C1153       C  0.55934932  0.99948093  0.18375919    -0.14300
C1154       C  0.56362654  0.01219106  0.20684142    -0.12000
C1155       C  0.58452363  0.02799723  0.20992191     0.01300
C1156       C  0.60176276  0.02943996  0.18939701    -0.24200
H1157       H  0.52567921  0.95957893  0.10490040     0.09300
H1158       H  0.53847217  0.96881437  0.14766103     0.12800
H1159       H  0.58632431  0.00378783  0.07478063     0.11600
H1160       H  0.61703919  0.02185123  0.10408167     0.12800
H1161       H  0.62857860  0.03547708  0.14692591     0.11800
H1162       H  0.54271354  0.98809239  0.18280815     0.08900
H1163       H  0.54977942  0.01026978  0.22184628     0.12100
H1164       H  0.61894107  0.04006022  0.19136375     0.14000
C1165       C  0.43320051  0.95840466  0.20694293    -0.01500
C1166       C  0.41447201  0.96137947  0.18827140    -0.09500
C1167       C  0.41957962  0.97347659  0.16531979    -0.18400
C1168       C  0.44365834  0.98341823  0.16029444     0.04000
C1169       C  0.46171544  0.98281263  0.18029718     0.18200
C1170       C  0.45649739  0.97017900  0.20315185    -0.19800
C1171       C  0.48526002  0.99398315  0.17698647    -0.21000
C1172       C  0.49190111  0.00426811  0.15363708    -0.19600
C1173       C  0.47541986  0.00296068  0.13283032     0.19600
C1174       C  0.45084036  0.99300256  0.13591654     0.01700
C1175       C  0.43525577  0.99145048  0.11402542    -0.14300
C1176       C  0.44451551  0.99745670  0.08979374    -0.12000
C1177       C  0.46923105  0.00594709  0.08673386     0.01300
C1178       C  0.48404843  0.00996513  0.10857769    -0.24200
H1179       H  0.39577118  0.95389897  0.19111863     0.09300
H1180       H  0.40436338  0.97453931  0.15176447     0.12800
H1181       H  0.47116831  0.96847450  0.21737750     0.11600
H1182       H  0.49880762  0.99427560  0.19242228     0.12800
H1183       H  0.51052134  0.01223604  0.15149894     0.11800
H1184       H  0.41635375  0.98418255  0.11476063     0.08900
H1185       H  0.43269392  0.99428138  0.07325498     0.12100
H1186       H  0.50329133  0.01641062  0.10650206     0.14000
C1187       C  0.47888354  0.08020289  0.00660391    -0.01500
C1188       C  0.47923510  0.10056367  0.99002536    -0.09500
C1189       C  0.47163138  0.12421424  0.99847093    -0.18400
C1190       C  0.46362589  0.12830027  0.02399692     0.04000
C1191       C  0.46268160  0.10737454  0.04042060     0.18200
C1192       C  0.47006757  0.08381826  0.03162852    -0.19800
C1193       C  0.45495385  0.11007421  0.06583179    -0.21000
C1194       C  0.44840022  0.13320600  0.07551940    -0.19600
C1195       C  0.44935287  0.15428077  0.06005966     0.19600
C1196       C  0.45685277  0.15226928  0.03404487     0.01700
C1197       C  0.45742424  0.17438186  0.01950021    -0.14300
C1198       C  0.45053156  0.19733749  0.03030475    -0.12000
C1199       C  0.44288006  0.19908892  0.05592162     0.01300
C1200       C  0.44275374  0.17737880  0.07064673    -0.24200
H1201       H  0.48615391  0.09839604  0.97067832     0.09300
H1202       H  0.47270184  0.13904041  0.98477017     0.12800
H1203       H  0.46972730  0.06832168  0.04476601     0.11600
H1204       H  0.45419167  0.09417606  0.07841846     0.12800
H1205       H  0.44261537  0.13462984  0.09533635     0.11800
H1206       H  0.46293853  0.17446878  0.99968208     0.08900
H1207       H  0.45064796  0.21368029  0.01835991     0.12100
H1208       H  0.43748514  0.17842002  0.09063729     0.14000
C1209       C  0.57246947  0.19411352  0.95065523    -0.01500
C1210       C  0.56646295  0.19284786  0.97673455    -0.09500
C1211       C  0.56376073  0.16989374  0.98896248    -0.18400
C1212       C  0.56708131  0.14729515  0.97542521     0.04000
C1213       C  0.57300621  0.14876875  0.94896409     0.18200
C1214       C  0.57537261  0.17187518  0.93693183    -0.19800
C1215       C  0.57666686  0.12715508  0.93452789    -0.21000
C1216       C  0.57449222  0.10397317  0.94571561    -0.19600
C1217       C  0.56831918  0.10177161  0.97157704     0.19600
C1218       C  0.56455933  0.12330396  0.98694411     0.01700
C1219       C  0.55791765  0.11972001  0.01290083    -0.14300
C1220       C  0.55392518  0.09580907  0.02267121    -0.12000
C1221       C  0.55675611  0.07476257  0.00704299     0.01300
C1222       C  0.56484903  0.07799815  0.98178245    -0.24200
H1223       H  0.56435743  0.20970401  0.98790961     0.09300
H1224       H  0.55933057  0.17042153  0.00904474     0.12800
H1225       H  0.57948695  0.17250876  0.91666016     0.11600
H1226       H  0.58123247  0.12817627  0.91437751     0.12800
H1227       H  0.57727255  0.08759919  0.93391446     0.11800
H1228       H  0.55477866  0.13503860  0.02583703     0.08900
H1229       H  0.54728798  0.09390129  0.04213082     0.12100
H1230       H  0.56698882  0.06191495  0.96940827     0.14000
C1231       C  0.01612008  0.08372679  0.54361390    -0.01500
C1232       C  0.02389710  0.08801197  0.56879487    -0.09500
C1233       C  0.03029033  0.11225140  0.57695334    -0.18400
C1234       C  0.02918641  0.13275238  0.55993743     0.04000
C1235       C  0.02011256  0.12809493  0.53487211     0.18200
C1236       C  0.01349337  0.10404940  0.52723847    -0.19800
C1237       C  0.01863383  0.14723381  0.51699136    -0.21000
C1238       C  0.02706934  0.17091605  0.52300678    -0.19600
C1239       C  0.03689862  0.17619282  0.54717801     0.19600
C1240       C  0.03751813  0.15745131  0.56628060     0.01700
C1241       C  0.04701362  0.16424570  0.59052851    -0.14300
C1242       C  0.05654759  0.18817710  0.59512271    -0.12000
C1243       C  0.05725226  0.20620352  0.57572026     0.01300
C1244       C  0.04675533  0.20003090  0.55197006    -0.24200
H1245       H  0.02611598  0.07257760  0.58175917     0.09300
H1246       H  0.03683037  0.11430092  0.59634055     0.12800
H1247       H  0.00720591  0.10090764  0.50778205     0.11600
H1248       H  0.01154962  0.14369478  0.49790377     0.12800
H1249       H  0.02627945  0.18512984  0.50845762     0.11800
H1250       H  0.04750998  0.15136361  0.60621302     0.08900
H1251       H  0.06366629  0.19244046  0.61400830     0.12100
H1252       H  0.04719644  0.21346250  0.53664916     0.14000
C1253       C  0.43872665  0.04760530  0.80676661    -0.01500
C1254       C  0.43564494  0.06226011  0.82882205    -0.09500
C1255       C  0.43857408  0.05230247  0.85314782    -0.18400
C1256       C  0.44512516  0.02714926  0.85650565     0.04000
C1257       C  0.44922412  0.01242415  0.83423949     0.18200
C1258       C  0.44581930  0.02264810  0.80967432    -0.19800
C1259       C  0.45698884  0.98770151  0.83671594    -0.21000
C1260       C  0.46211203  0.97777715  0.86070979    -0.19600
C1261       C  0.45886392  0.99208539  0.88291359     0.19600
C1262       C  0.44897353  0.01649178  0.88116197     0.01700
C1263       C  0.44395388  0.02939909  0.90419423    -0.14300
C1264       C  0.45139102  0.01979171  0.92770554    -0.12000
C1265       C  0.46413418  0.99706617  0.92912564     0.01300
C1266       C  0.46663499  0.98271277  0.90673104    -0.24200
H1267       H  0.43095699  0.08175935  0.82729706     0.09300
H1268       H  0.43619012  0.06498297  0.86897349     0.12800
H1269       H  0.44836706  0.01108981  0.79285487     0.11600
H1270       H  0.46004028  0.97623570  0.81992418     0.12800
H1271       H  0.46927835  0.95899186  0.86185246     0.11800
H1272       H  0.43484156  0.04726968  0.90460768     0.08900
H1273       H  0.44869736  0.03113276  0.94464112     0.12100
H1274       H  0.47602994  0.96488127  0.90757159     0.14000
C1275       C  0.08613605  0.43691457  0.98112927    -0.01500
C1276       C  0.10336878  0.43075299  0.00042261    -0.09500
C1277       C  0.12905372  0.42694711  0.99477848    -0.18400
C1278       C  0.13843567  0.42944272  0.96953962     0.04000
C1279       C  0.12054224  0.43413652  0.94996055     0.18200
C1280       C  0.09491618  0.43743481  0.95582968    -0.19800
C1281       C  0.12837769  0.43670126  0.92460141    -0.21000
C1282       C  0.15364802  0.43506129  0.91814185    -0.19600
C1283       C  0.17187808  0.43081495  0.93683891     0.19600
C1284       C  0.16474876  0.42789586  0.96285496     0.01700
C1285       C  0.18434053  0.42365125  0.98073574    -0.14300
C1286       C  0.20964967  0.42138656  0.97282858    -0.12000
C1287       C  0.21623847  0.42350356  0.94697395     0.01300
C1288       C  0.19719477  0.42885935  0.92933555    -0.24200
H1289       H  0.09738086  0.43067673  0.02020045     0.09300
H1290       H  0.14133458  0.42305259  0.01063368     0.12800
H1291       H  0.08195063  0.44231101  0.94068387     0.11600
H1292       H  0.11484163  0.44030263  0.90961056     0.17200
H1293       H  0.15898522  0.43718124  0.89828331     0.11800
H1294       H  0.18051921  0.42141710  0.00082503     0.08900
H1295       H  0.22390964  0.41680104  0.98677620     0.12100
H1296       H  0.20207017  0.43033894  0.90926779     0.14000
C1297       C  0.12869729  0.25418979  0.61448060    -0.01500
C1298       C  0.14628519  0.23492609  0.61262536    -0.09500
C1299       C  0.16702378  0.23402397  0.62890590    -0.18400
C1300       C  0.17081581  0.25237365  0.64794732     0.04000
C1301       C  0.15334459  0.27233218  0.64927948     0.18200
C1302       C  0.13269418  0.27317525  0.63249694    -0.19800
C1303       C  0.15616516  0.29092679  0.66785604    -0.21000
C1304       C  0.17536641  0.28961537  0.68582370    -0.19600
C1305       C  0.19233200  0.26975453  0.68558095     0.19600
C1306       C  0.19074402  0.25118473  0.66624818     0.01700
C1307       C  0.20875103  0.23186839  0.66657069    -0.14300
C1308       C  0.22657308  0.23027497  0.68607229    -0.12000
C1309       C  0.22723548  0.24788446  0.70586681     0.01300
C1310       C  0.21044460  0.26798719  0.70502969    -0.24200
H1311       H  0.14390734  0.22031672  0.59852359     0.09300
H1312       H  0.17945258  0.21841449  0.62639384     0.12800
H1313       H  0.11914119  0.28812989  0.63413912     0.11600
H1314       H  0.14305760  0.30629500  0.66888314     0.12800
H1315       H  0.17664382  0.30399541  0.70034087     0.11800
H1316       H  0.20933067  0.21741833  0.65225930     0.08900
H1317       H  0.23952700  0.21477861  0.68589979     0.12100
H1318       H  0.21097166  0.28204023  0.71993632     0.14000
C1319       C  0.29525859  0.20181162  0.74924563    -0.01500
C1320       C  0.29710218  0.18508512  0.72870191    -0.09500
C1321       C  0.31444077  0.16559659  0.72908276    -0.18400
C1322       C  0.33068877  0.16215912  0.75015177     0.04000
C1323       C  0.32879604  0.17921291  0.77090145     0.18200
C1324       C  0.31121722  0.19863624  0.77030657    -0.19800
C1325       C  0.34458263  0.17693200  0.79212033    -0.21000
C1326       C  0.36246625  0.15819750  0.79312192    -0.19600
C1327       C  0.36489185  0.14113535  0.77302058     0.19600
C1328       C  0.34891402  0.14265968  0.75132134     0.01700
C1329       C  0.35203346  0.12467395  0.73175185    -0.14300
C1330       C  0.37060117  0.10639715  0.73343797    -0.12000
C1331       C  0.38662017  0.10530940  0.75463573     0.01300
C1332       C  0.38345087  0.12267892  0.77444199    -0.24200
H1333       H  0.28510334  0.18703197  0.71213505     0.09300
H1334       H  0.31476130  0.15365194  0.71251498     0.12800
H1335       H  0.31010940  0.21140461  0.78635324     0.11600
H1336       H  0.34322396  0.18986603  0.80800196     0.12800
H1337       H  0.37454295  0.15708452  0.80973965     0.11800
H1338       H  0.34046432  0.12423127  0.71488306     0.08900
H1339       H  0.37236874  0.09296274  0.71806990     0.12100
H1340       H  0.39590937  0.12221708  0.79081588     0.14000
C1341       C  0.26196057  0.36832593  0.88722758    -0.01500
C1342       C  0.24383172  0.37011965  0.86798461    -0.09500
C1343       C  0.24181515  0.35193360  0.84908863    -0.18400
C1344       C  0.25794491  0.33109109  0.84882841     0.04000
C1345       C  0.27641653  0.32935346  0.86838643     0.18200
C1346       C  0.27834004  0.34796450  0.88726380    -0.19800
C1347       C  0.29288330  0.30910795  0.86890476    -0.21000
C1348       C  0.29179612  0.29080397  0.85006813    -0.19600
C1349       C  0.27416518  0.29224652  0.83028247     0.19600
C1350       C  0.25669244  0.31218321  0.82962324     0.01700
C1351       C  0.23893217  0.31248682  0.80955312    -0.14300
C1352       C  0.23931353  0.29451005  0.79031423    -0.12000
C1353       C  0.25722187  0.27545309  0.79038101     0.01300
C1354       C  0.27423156  0.27412227  0.81083094    -0.24200
H1355       H  0.23122066  0.38589140  0.86742487     0.09300
H1356       H  0.22750343  0.35488998  0.83488893     0.12800
H1357       H  0.29235616  0.34646604  0.90221043     0.11600
H1358       H  0.30689754  0.30755952  0.88382797     0.12800
H1359       H  0.30504651  0.27555191  0.85081780     0.11800
H1360       H  0.22461466  0.32651751  0.80793801     0.08900
H1361       H  0.22562956  0.29583389  0.77507588     0.12100
H1362       H  0.28800200  0.25930703  0.81134706     0.14000
C1363       C  0.78695463  0.54342987  0.94628755    -0.01500
C1364       C  0.79495094  0.51923066  0.94080992    -0.09500
C1365       C  0.81750878  0.51008363  0.95089157    -0.18400
C1366       C  0.83281413  0.52489309  0.96711867     0.04000
C1367       C  0.82380594  0.54889982  0.97385628     0.18200
C1368       C  0.80128275  0.55800548  0.96321614    -0.19800
C1369       C  0.83763325  0.56389676  0.99072340    -0.21000
C1370       C  0.86062961  0.55592972  0.00044935    -0.19600
C1371       C  0.87073850  0.53294412  0.99318331     0.19600
C1372       C  0.85690354  0.51702809  0.97647846     0.01700
C1373       C  0.86823491  0.49435403  0.96912878    -0.14300
C1374       C  0.89249933  0.48822020  0.97720571    -0.12000
C1375       C  0.90632180  0.50407685  0.99329825     0.01300
C1376       C  0.89499809  0.52617072  0.00178766    -0.24200
H1377       H  0.78416296  0.50763748  0.92784729     0.09300
H1378       H  0.82257056  0.49144179  0.94543573     0.12800
H1379       H  0.79504223  0.57667311  0.96777297     0.11600
H1380       H  0.83074392  0.58208880  0.99622066     0.12800
H1381       H  0.87091973  0.56816384  0.01321558     0.11800
H1382       H  0.85916313  0.48128986  0.95649112     0.08900
H1383       H  0.90067279  0.47095586  0.97047752     0.12100
H1384       H  0.90555739  0.53868936  0.01403821     0.14000
C1385       C  0.93435318  0.79969758  0.56509045    -0.01500
C1386       C  0.92239037  0.82239296  0.57028603    -0.09500
C1387       C  0.93438642  0.84498713  0.56567973    -0.18400
C1388       C  0.95883111  0.84588723  0.55508220     0.04000
C1389       C  0.97046324  0.82305083  0.54835906     0.18200
C1390       C  0.95847052  0.80029366  0.55387144    -0.19800
C1391       C  0.99386059  0.82314114  0.53594075    -0.21000
C1392       C  0.00566873  0.84545391  0.52963377    -0.19600
C1393       C  0.99493239  0.86826509  0.53656713     0.19600
C1394       C  0.97173824  0.86869065  0.55015964     0.01700
C1395       C  0.96237779  0.89195978  0.55822313    -0.14300
C1396       C  0.97434522  0.91393146  0.55126304    -0.12000
C1397       C  0.99613076  0.91368258  0.53613708     0.01300
C1398       C  0.00682609  0.89069730  0.52948871    -0.24200
H1399       H  0.90342447  0.82284146  0.57782377     0.09300
H1400       H  0.92370466  0.86147384  0.56999282     0.12800
H1401       H  0.96814455  0.78306932  0.54962984     0.11600
H1402       H  0.00282470  0.80583205  0.53053332     0.12800
H1403       H  0.02337460  0.84485598  0.51936063     0.11800
H1404       H  0.94570625  0.89383049  0.56980238     0.08900
H1405       H  0.96581981  0.93136623  0.55697182     0.12100
H1406       H  0.02361504  0.89023896  0.51771291     0.14000
C1407       C  0.75343262  0.70967115  0.80163408    -0.01500
C1408       C  0.77231967  0.69156019  0.79991690    -0.09500
C1409       C  0.77340710  0.67200714  0.81727637    -0.18400
C1410       C  0.75551431  0.66978529  0.83712866     0.04000
C1411       C  0.73679478  0.68854399  0.83925424     0.18200
C1412       C  0.73597205  0.70819707  0.82168847    -0.19800
C1413       C  0.71865553  0.68732562  0.85860135    -0.21000
C1414       C  0.71817707  0.66746669  0.87543307    -0.19600
C1415       C  0.73591500  0.64837846  0.87345473     0.19600
C1416       C  0.75515659  0.64942593  0.85459300     0.01700
C1417       C  0.77285726  0.62980033  0.85381469    -0.14300
C1418       C  0.77101746  0.60969745  0.87050556    -0.12000
C1419       C  0.75148844  0.60839310  0.88839115     0.01300
C1420       C  0.73421766  0.62798475  0.88998029    -0.24200
H1421       H  0.78617768  0.69217016  0.78475242     0.09300
H1422       H  0.78830270  0.65871284  0.81437604     0.12800
H1423       H  0.72137334  0.72214550  0.82343002     0.11600
H1424       H  0.70444568  0.70163436  0.86046441     0.12800
H1425       H  0.70360126  0.66687403  0.88991787     0.11800
H1426       H  0.78818381  0.62925801  0.84030744     0.08900
H1427       H  0.78448237  0.59469522  0.86889297     0.12100
H1428       H  0.71919460  0.62717213  0.90400239     0.14000
C1429       C  0.78729140  0.74938336  0.72446391    -0.01500
C1430       C  0.80489426  0.73011878  0.72224036    -0.09500
C1431       C  0.82292358  0.73008394  0.70287125    -0.18400
C1432       C  0.82417561  0.74949005  0.68487434     0.04000
C1433       C  0.80666608  0.76930998  0.68743357     0.18200
C1434       C  0.78843652  0.76904754  0.70700446    -0.19800
C1435       C  0.80735996  0.78918235  0.67032466    -0.21000
C1436       C  0.82483305  0.78965265  0.65050973    -0.19600
C1437       C  0.84203010  0.77022245  0.64720959     0.19600
C1438       C  0.84202700  0.74987644  0.66438154     0.01700
C1439       C  0.85975694  0.73072340  0.66010602    -0.14300
C1440       C  0.87657449  0.73163953  0.63961984    -0.12000
C1441       C  0.87641641  0.75160949  0.62258705     0.01300
C1442       C  0.85910235  0.77091847  0.62665837    -0.24200
H1443       H  0.80459805  0.71466596  0.73537860     0.09300
H1444       H  0.83559816  0.71445235  0.70250128     0.12800
H1445       H  0.77509878  0.78419776  0.70858718     0.11600
H1446       H  0.79419552  0.80443473  0.67220044     0.12800
H1447       H  0.82477023  0.80526824  0.63753971     0.11800
H1448       H  0.86110825  0.71464129  0.67222708     0.08900
H1449       H  0.88996713  0.71667474  0.63726240     0.12100
H1450       H  0.85855516  0.78635328  0.61345581     0.14000
C1451       C  0.56877791  0.93973864  0.79954536    -0.01500
C1452       C  0.58927328  0.94036812  0.81658054    -0.09500
C1453       C  0.58785551  0.95283620  0.84000061    -0.18400
C1454       C  0.56604159  0.96601373  0.84713441     0.04000
C1455       C  0.54640891  0.96785343  0.82879333     0.18200
C1456       C  0.54766395  0.95441005  0.80554138    -0.19800
C1457       C  0.52549784  0.98282376  0.83400974    -0.21000
C1458       C  0.52320902  0.99507170  0.85741600    -0.19600
C1459       C  0.54101793  0.99156860  0.87675437     0.19600
C1460       C  0.56283941  0.97713187  0.87187965     0.01700
C1461       C  0.57970821  0.97326951  0.89242482    -0.14300
C1462       C  0.57424335  0.98203946  0.91708417    -0.12000
C1463       C  0.55228073  0.99560980  0.92196930     0.01300
C1464       C  0.53635723  0.00122889  0.90135361    -0.24200
H1465       H  0.60666569  0.93091396  0.81202726     0.09300
H1466       H  0.60424494  0.95202153  0.85206971     0.12800
H1467       H  0.53180071  0.95480962  0.79258722     0.11600
H1468       H  0.51077110  0.98501207  0.81991869     0.12800
H1469       H  0.50686691  0.00661063  0.86079060     0.11800
H1470       H  0.59649932  0.96224822  0.89036860     0.08900
H1471       H  0.58674537  0.97728096  0.93262122     0.12100
H1472       H  0.51907426  0.01137338  0.90485105     0.14000
C1473       C  0.60487740  0.86454799  0.75652552    -0.01500
C1474       C  0.60703783  0.84919192  0.77795740    -0.09500
C1475       C  0.62606092  0.83130396  0.77943473    -0.18400
C1476       C  0.64381979  0.82830609  0.75946981     0.04000
C1477       C  0.64112861  0.84352691  0.73753888     0.18200
C1478       C  0.62179090  0.86121142  0.73622051    -0.19800
C1479       C  0.65816303  0.84152609  0.71724477    -0.21000
C1480       C  0.67823485  0.82510408  0.71842408    -0.19600
C1481       C  0.68175075  0.81015196  0.73988037     0.19600
C1482       C  0.66443617  0.81122200  0.76060012     0.01700
C1483       C  0.66878897  0.79538511  0.78160243    -0.14300
C1484       C  0.68965969  0.77958430  0.78215061    -0.12000
C1485       C  0.70698523  0.77899464  0.76190100     0.01300
C1486       C  0.70269272  0.79427410  0.74074303    -0.24200
H1487       H  0.59407205  0.85117370  0.79381130     0.09300
H1488       H  0.62662732  0.82042443  0.79662286     0.12800
H1489       H  0.62060281  0.87320849  0.71970771     0.11600
H1490       H  0.65616210  0.85302618  0.70045132     0.12800
H1491       H  0.69125973  0.82426476  0.70249868     0.11800
H1492       H  0.65646699  0.79483063  0.79794097     0.08900
H1493       H  0.69230840  0.76791167  0.79870251     0.12100
H1494       H  0.71570968  0.79387565  0.72478868     0.14000
C1495       C  0.44728579  0.29327936  0.06756499    -0.01500
C1496       C  0.43069697  0.31333830  0.06488491    -0.09500
C1497       C  0.43948021  0.33765712  0.06369874    -0.18400
C1498       C  0.46545050  0.34294383  0.06470788     0.04000
C1499       C  0.48247849  0.32261160  0.06513446     0.18200
C1500       C  0.47331533  0.29799120  0.06692919    -0.19800
C1501       C  0.50843207  0.32714093  0.06362618    -0.21000
C1502       C  0.51762700  0.35130688  0.06074305    -0.19600
C1503       C  0.50119993  0.37167354  0.06071170     0.19600
C1504       C  0.47501609  0.36773304  0.06413432     0.01700
C1505       C  0.45941766  0.38880095  0.06667728    -0.14300
C1506       C  0.46884001  0.41263390  0.06260065    -0.12000
C1507       C  0.49403041  0.41635883  0.05552575     0.01300
C1508       C  0.51046953  0.39584734  0.05610663    -0.24200
H1509       H  0.41055964  0.31022253  0.06424354     0.09300
H1510       H  0.42548198  0.35194893  0.06151009     0.12800
H1511       H  0.48638001  0.28265413  0.06852732     0.11600
H1512       H  0.52164375  0.31184426  0.06377268     0.12800
H1513       H  0.53769839  0.35407416  0.05845493     0.11800
H1514       H  0.43970375  0.38737275  0.07134703     0.08900
H1515       H  0.45571604  0.42799895  0.06290895     0.12100
H1516       H  0.53009714  0.39835931  0.05108137     0.14000
C1517       C  0.49641424  0.39963274  0.96763869    -0.01500
C1518       C  0.50387882  0.39556803  0.94244171    -0.09500
C1519       C  0.50962329  0.37168769  0.93394323    -0.18400
C1520       C  0.50922351  0.35136602  0.95097889     0.04000
C1521       C  0.49948334  0.35537901  0.97595488     0.18200
C1522       C  0.49224802  0.37932887  0.98374064    -0.19800
C1523       C  0.49928444  0.33601518  0.99367235    -0.21000
C1524       C  0.51113535  0.31358392  0.98809033    -0.19600
C1525       C  0.52243333  0.30965804  0.96420285     0.19600
C1526       C  0.52020553  0.32792777  0.94485142     0.01700
C1527       C  0.53026781  0.32244676  0.92054186    -0.14300
C1528       C  0.54383264  0.30076405  0.91620173    -0.12000
C1529       C  0.54826860  0.28376934  0.93590505     0.01300
C1530       C  0.53666071  0.28799276  0.95973051    -0.24200
H1531       H  0.50653856  0.41110818  0.92966339     0.09300
H1532       H  0.51618438  0.37016519  0.91452558     0.12800
H1533       H  0.48617646  0.38256095  0.00327694     0.11600
H1534       H  0.49125872  0.33878276  0.01246984     0.12800
H1535       H  0.51205346  0.29950242  0.00276751     0.11800
H1536       H  0.52808308  0.33459135  0.90441444     0.08900
H1537       H  0.55105108  0.29746600  0.89715062     0.12100
H1538       H  0.53945276  0.27499079  0.97517476     0.14000
C1539       C  0.59984386  0.48180531  0.01701196    -0.01500
C1540       C  0.62142793  0.49634014  0.01305755    -0.09500
C1541       C  0.64563822  0.48618433  0.01669120    -0.18400
C1542       C  0.64885114  0.46094699  0.02376388     0.04000
C1543       C  0.62677578  0.44623876  0.02632366     0.18200
C1544       C  0.60294619  0.45673081  0.02331998    -0.19800
C1545       C  0.62837320  0.42096579  0.03199488    -0.21000
C1546       C  0.65149774  0.40986653  0.03579641    -0.19600
C1547       C  0.67360256  0.42388534  0.03472248     0.19600
C1548       C  0.67284741  0.44960603  0.02867637     0.01700
C1549       C  0.69602278  0.46271430  0.02875017    -0.14300
C1550       C  0.71859268  0.45099723  0.03601768    -0.12000
C1551       C  0.71878392  0.42582606  0.04292431     0.01300
C1552       C  0.69633257  0.41230127  0.04086981    -0.24200
H1553       H  0.61959476  0.51559568  0.00752777     0.09300
H1554       H  0.66151196  0.49834351  0.01370149     0.12800
H1555       H  0.58652634  0.44494148  0.02557693     0.11600
H1556       H  0.61154635  0.40967430  0.03366308     0.12800
H1557       H  0.65202071  0.39027583  0.04041746     0.11800
H1558       H  0.69700562  0.48223644  0.02434777     0.08900
H1559       H  0.73566444  0.46192870  0.03734818     0.12100
H1560       H  0.69630677  0.39266717  0.04539098     0.14000
C1561       C  0.56971814  0.49696708  0.93558584    -0.01500
C1562       C  0.58904231  0.47953937  0.93204738    -0.09500
C1563       C  0.61352095  0.48715589  0.92620838    -0.18400
C1564       C  0.61947385  0.51263265  0.92390064     0.04000
C1565       C  0.59920750  0.52988394  0.92453308     0.18200
C1566       C  0.57455903  0.52187351  0.92975705    -0.19800
C1567       C  0.60388805  0.55529128  0.92191195    -0.21000
C1568       C  0.62837446  0.56412004  0.91999469    -0.19600
C1569       C  0.64881443  0.54777645  0.92069192     0.19600
C1570       C  0.64476306  0.52175506  0.92217163     0.01700
C1571       C  0.66624743  0.50621979  0.92290852    -0.14300
C1572       C  0.69064432  0.51619717  0.92234640    -0.12000
C1573       C  0.69454192  0.54193770  0.92110915     0.01300
C1574       C  0.67333012  0.55749829  0.92040486    -0.24200
H1575       H  0.58575966  0.46009780  0.93614789     0.09300
H1576       H  0.62757625  0.47281532  0.92502082     0.12800
H1577       H  0.55979657  0.53554398  0.93229549     0.11600
H1578       H  0.58854703  0.56852563  0.92220037     0.12800
H1579       H  0.63137165  0.58397743  0.91859010     0.11800
H1580       H  0.66482480  0.48630459  0.92406171     0.08900
H1581       H  0.70650927  0.50362419  0.92256165     0.12100
H1582       H  0.67581521  0.57746879  0.92012969     0.14000
C1583       C  0.52609563  0.56964234  0.05095652    -0.01500
C1584       C  0.50874359  0.58913082  0.05383699    -0.09500
C1585       C  0.51660631  0.61311561  0.06069586    -0.18400
C1586       C  0.54230174  0.61857512  0.06493614     0.04000
C1587       C  0.55954146  0.59838155  0.06410320     0.18200
C1588       C  0.55136939  0.57430944  0.05720458    -0.19800
C1589       C  0.58508169  0.60252058  0.06905129    -0.21000
C1590       C  0.59404085  0.62633998  0.07404735    -0.19600
C1591       C  0.57777728  0.64676403  0.07393552     0.19600
C1592       C  0.55164522  0.64328098  0.06945564     0.01700
C1593       C  0.53626341  0.66476109  0.06907384    -0.14300
C1594       C  0.54635914  0.68851798  0.07351419    -0.12000
C1595       C  0.57209908  0.69179692  0.07846008     0.01300
C1596       C  0.58764940  0.67068460  0.07820412    -0.24200
H1597       H  0.48909459  0.58625234  0.04921111     0.09300
H1598       H  0.50221971  0.62717192  0.06180588     0.12800
H1599       H  0.56506077  0.55953048  0.05512322     0.11600
H1600       H  0.59832691  0.58724553  0.06868999     0.12800
H1601       H  0.61397038  0.62885261  0.07761861     0.11800
H1602       H  0.51633037  0.66378304  0.06540215     0.08900
H1603       H  0.53378810  0.70431314  0.07371355     0.12100
H1604       H  0.60770238  0.67283312  0.08128813     0.14000
C1605       C  0.44468839  0.69886000  0.94371373    -0.01500
C1606       C  0.47082860  0.69901743  0.94784852    -0.09500
C1607       C  0.48397262  0.67686383  0.95284343    -0.18400
C1608       C  0.47135205  0.65367052  0.95368774     0.04000
C1609       C  0.44482146  0.65383974  0.94992083     0.18200
C1610       C  0.43192226  0.67612430  0.94548874    -0.19800
C1611       C  0.43113541  0.63166928  0.95011916    -0.21000
C1612       C  0.44314968  0.60916754  0.95373377    -0.19600
C1613       C  0.46915225  0.60820379  0.95768380     0.19600
C1614       C  0.48379908  0.63029564  0.95795482     0.01700
C1615       C  0.51000786  0.62776560  0.96268683    -0.14300
C1616       C  0.52091513  0.60430528  0.96738954    -0.12000
C1617       C  0.50614181  0.58266286  0.96706900     0.01300
C1618       C  0.48033401  0.58504282  0.96182385    -0.24200
H1619       H  0.48131589  0.71621095  0.94644638     0.09300
H1620       H  0.50404795  0.67830663  0.95545442     0.12800
H1621       H  0.41167638  0.67566065  0.94298432     0.11600
H1622       H  0.41094453  0.63168858  0.94719864     0.12800
H1623       H  0.43192388  0.59233732  0.95362738     0.11800
H1624       H  0.52236831  0.64366262  0.96330956     0.08900
H1625       H  0.54081875  0.60316002  0.97159254     0.12100
H1626       H  0.46841866  0.56867444  0.96165318     0.14000
C1627       C  0.41684930  0.50136477  0.03121759    -0.01500
C1628       C  0.39757589  0.49681306  0.01359485    -0.09500
C1629       C  0.37452249  0.50857877  0.01615106    -0.18400
C1630       C  0.37005863  0.52487059  0.03683667     0.04000
C1631       C  0.38858980  0.52676802  0.05633009     0.18200
C1632       C  0.41206478  0.51547812  0.05307772    -0.19800
C1633       C  0.38384006  0.54061519  0.07845120    -0.21000
C1634       C  0.36120891  0.55316179  0.08131710    -0.19600
C1635       C  0.34351027  0.55318219  0.06153458     0.19600
C1636       C  0.34797058  0.53949830  0.03875820     0.01700
C1637       C  0.33073947  0.54192820  0.01843068    -0.14300
C1638       C  0.30944575  0.55672780  0.02102089    -0.12000
C1639       C  0.30422333  0.56901709  0.04412869     0.01300
C1640       C  0.32148338  0.56710000  0.06428857    -0.24200
H1641       H  0.40084095  0.48537133  0.99683622     0.09300
H1642       H  0.36066178  0.50474037  0.00160859     0.12800
H1643       H  0.42687063  0.51837326  0.06702781     0.11600
H1644       H  0.39769827  0.54177034  0.09358266     0.12800
H1645       H  0.35791890  0.56364875  0.09872436     0.11800
H1646       H  0.33365602  0.53330031  0.00001951     0.08900
H1647       H  0.29707133  0.55854838  0.00473830     0.12100
H1648       H  0.31774121  0.57616228  0.08240874     0.14000
C1649       C  0.43669106  0.48049537  0.94628402    -0.01500
C1650       C  0.41653526  0.49717873  0.94412078    -0.09500
C1651       C  0.39187037  0.48855624  0.94035115    -0.18400
C1652       C  0.38653411  0.46280013  0.93914204     0.04000
C1653       C  0.40734396  0.44620552  0.93930728     0.18200
C1654       C  0.43200855  0.45516744  0.94212076    -0.19800
C1655       C  0.40341941  0.42055039  0.93821815    -0.21000
C1656       C  0.37922433  0.41086341  0.93747141    -0.19600
C1657       C  0.35826611  0.42655627  0.93772539     0.19600
C1658       C  0.36145932  0.45276050  0.93845388     0.01700
C1659       C  0.33938441  0.46752840  0.93888608    -0.14300
C1660       C  0.31528824  0.45667032  0.93776375    -0.12000
C1661       C  0.31233412  0.43078940  0.93633516     0.01300
C1662       C  0.33408898  0.41599283  0.93700993    -0.24200
H1663       H  0.41953951  0.51686175  0.94728157     0.09300
H1664       H  0.37724532  0.50237481  0.93976777     0.12800
H1665       H  0.44731747  0.44197696  0.94374238     0.11600
H1666       H  0.41919709  0.40782008  0.93843336     0.12800
H1667       H  0.37688431  0.39087231  0.93683994     0.11800
H1668       H  0.34017916  0.48751830  0.93972441     0.08900
H1669       H  0.29895432  0.46862932  0.93712035     0.12100
H1670       H  0.33221508  0.39594372  0.93651760     0.14000
C1671       C  0.07530436  0.44496285  0.29799809    -0.01500
C1672       C  0.06950909  0.47031781  0.29952682    -0.09500
C1673       C  0.06592331  0.48198586  0.32321011    -0.18400
C1674       C  0.06811934  0.46858494  0.34628610     0.04000
C1675       C  0.07416219  0.44292165  0.34455929     0.18200
C1676       C  0.07743078  0.43144055  0.32069878    -0.19800
C1677       C  0.07674908  0.42869580  0.36665618    -0.21000
C1678       C  0.07311413  0.43929924  0.39057831    -0.19600
C1679       C  0.06650934  0.46432977  0.39299520     0.19600
C1680       C  0.06405208  0.47945801  0.37096160     0.01700
C1681       C  0.05673341  0.50449076  0.37464206    -0.14300
C1682       C  0.05024715  0.51343676  0.39891316    -0.12000
C1683       C  0.05150257  0.49800194  0.42033611     0.01300
C1684       C  0.06091178  0.47386292  0.41732204    -0.24200
H1685       H  0.06806784  0.48130838  0.28233707     0.09300
H1686       H  0.06157507  0.50150764  0.32282394     0.12800
H1687       H  0.08136312  0.41170698  0.31984204     0.11600
H1688       H  0.08143403  0.40914285  0.36542668     0.12800
H1689       H  0.07489309  0.42766394  0.40730259     0.11800
H1690       H  0.05466096  0.51725827  0.35902857     0.08900
H1691       H  0.04288265  0.53211378  0.40070733     0.12100
H1692       H  0.06164323  0.46158784  0.43365361     0.14000
C1693       C  0.96881881  0.50100574  0.41168584    -0.01500
C1694       C  0.96976753  0.48427668  0.39107204    -0.09500
C1695       C  0.96739933  0.49269402  0.36577258    -0.18400
C1696       C  0.96496492  0.51835070  0.36031162     0.04000
C1697       C  0.96504367  0.53514850  0.38139014     0.18200
C1698       C  0.96633639  0.52637735  0.40653016    -0.19800
C1699       C  0.96420870  0.56077332  0.37737921    -0.21000
C1700       C  0.96254600  0.57022693  0.35287425    -0.19600
C1701       C  0.96113491  0.55430794  0.33173054     0.19600
C1702       C  0.96246763  0.52813478  0.33492514     0.01700
C1703       C  0.96059638  0.51315168  0.31262094    -0.14300
C1704       C  0.95633327  0.52376641  0.28847630    -0.12000
C1705       C  0.95407541  0.54958758  0.28576873     0.01300
C1706       C  0.95751128  0.56461326  0.30747416    -0.24200
H1707       H  0.97251124  0.46466051  0.39453784     0.09300
H1708       H  0.96810725  0.47883974  0.35083659     0.12800
H1709       H  0.96665914  0.53961173  0.42223132     0.11600
H1710       H  0.96475162  0.57365002  0.39336277     0.12800
H1711       H  0.96169749  0.59019086  0.35049804     0.11800
H1712       H  0.96148668  0.49316880  0.31343277     0.08900
H1713       H  0.95378261  0.51168026  0.27207971     0.12100
H1714       H  0.95643812  0.58463316  0.30560427     0.14000
C1715       C  0.04220025  0.50087382  0.57833452    -0.01500
C1716       C  0.05271599  0.52449673  0.58200970    -0.09500
C1717       C  0.05624497  0.53416488  0.60644089    -0.18400
C1718       C  0.04980207  0.52028210  0.62827930     0.04000
C1719       C  0.04152122  0.49542185  0.62472118     0.18200
C1720       C  0.03704693  0.48615192  0.59983230    -0.19800
C1721       C  0.03742968  0.48032094  0.64607682    -0.21000
C1722       C  0.04164125  0.48942776  0.67078050    -0.19600
C1723       C  0.04859960  0.51428366  0.67482944     0.19600
C1724       C  0.05168777  0.53021604  0.65351519     0.01700
C1725       C  0.05578375  0.55567774  0.65826205    -0.14300
C1726       C  0.05885833  0.56462898  0.68301157    -0.12000
C1727       C  0.05861417  0.54862068  0.70409393     0.01300
C1728       C  0.05257373  0.52344278  0.69991125    -0.24200
H1729       H  0.05694181  0.53629152  0.56586091     0.09300
H1730       H  0.06424032  0.55254741  0.60765402     0.12800
H1731       H  0.02908660  0.46776718  0.59720381     0.11600
H1732       H  0.03130054  0.46125459  0.64364763     0.12800
H1733       H  0.03887998  0.47711272  0.68683635     0.11800
H1734       H  0.05618229  0.56925409  0.64321022     0.08900
H1735       H  0.06185164  0.58438532  0.68559068     0.12100
H1736       H  0.05158576  0.51088648  0.71597483     0.14000
C1737       C  0.92164220  0.46046035  0.69439920    -0.01500
C1738       C  0.90353616  0.46137647  0.67483063    -0.09500
C1739       C  0.90857719  0.47319059  0.65165117    -0.18400
C1740       C  0.93180422  0.48519645  0.64732101     0.04000
C1741       C  0.94898681  0.48669166  0.66805085     0.18200
C1742       C  0.94411736  0.47394879  0.69092818    -0.19800
C1743       C  0.97128938  0.50033943  0.66556358    -0.21000
C1744       C  0.97743101  0.51150503  0.64251071    -0.19600
C1745       C  0.96210423  0.50819070  0.62101551     0.19600
C1746       C  0.93895867  0.49514667  0.62305605     0.01700
C1747       C  0.92495586  0.49111724  0.60036866    -0.14300
C1748       C  0.93452753  0.49811190  0.57647329    -0.12000
C1749       C  0.95780437  0.51019912  0.57453244     0.01300
C1750       C  0.97074866  0.51632226  0.59714937    -0.24200
H1751       H  0.88531060  0.45272489  0.67715791     0.09300
H1752       H  0.89388929  0.47274030  0.63746027     0.12800
H1753       H  0.95849470  0.47387026  0.70554776     0.11600
H1754       H  0.98423930  0.50212862  0.68145315     0.12800
H1755       H  0.99494635  0.52172884  0.64114970     0.11800
H1756       H  0.90737030  0.48110462  0.60031517     0.08900
H1757       H  0.92422059  0.49302942  0.55938956     0.12100
H1758       H  0.98894710  0.52540878  0.59607795     0.14000
C1759       C  0.03821038  0.41521554  0.49945514    -0.01500
C1760       C  0.03517674  0.39348327  0.48481585    -0.09500
C1761       C  0.04130221  0.37007311  0.49489947    -0.18400
C1762       C  0.05049400  0.36763080  0.52018976     0.04000
C1763       C  0.05400100  0.38983599  0.53460951     0.18200
C1764       C  0.04812435  0.41307998  0.52416359    -0.19800
C1765       C  0.06273464  0.38881925  0.55976594    -0.21000
C1766       C  0.06789987  0.36620846  0.57115908    -0.19600
C1767       C  0.06466557  0.34394478  0.55767688     0.19600
C1768       C  0.05603440  0.34416761  0.53196240     0.01700
C1769       C  0.05330506  0.32090647  0.51944155    -0.14300
C1770       C  0.05920849  0.29856517  0.53188534    -0.12000
C1771       C  0.06797322  0.29856977  0.55720182     0.01300
C1772       C  0.07023337  0.32146912  0.56993358    -0.24200
H1773       H  0.02716480  0.39446051  0.46583970     0.09300
H1774       H  0.03809535  0.35416406  0.48272961     0.12800
H1775       H  0.05042816  0.42961982  0.53585167     0.11600
H1776       H  0.06537263  0.40568362  0.57085425     0.12800
H1777       H  0.07451728  0.36615252  0.59073305     0.11800
H1778       H  0.04691266  0.31946046  0.49995380     0.08900
H1779       H  0.05746464  0.28125182  0.52140990     0.12100
H1780       H  0.07645123  0.32186185  0.58964547     0.14000
C1781       C  0.93081770  0.30033240  0.44483746    -0.01500
C1782       C  0.93011203  0.32141275  0.42919906    -0.09500
C1783       C  0.93537495  0.34500013  0.43888912    -0.18400
C1784       C  0.94201113  0.34852043  0.46475318     0.04000
C1785       C  0.94483418  0.32705813  0.48016817     0.18200
C1786       C  0.93894090  0.30325087  0.47025183    -0.19800
C1787       C  0.95339631  0.32961806  0.50536747    -0.21000
C1788       C  0.95934240  0.35297166  0.51544702    -0.19600
C1789       C  0.95591600  0.37451694  0.50096613     0.19600
C1790       C  0.94649337  0.37255876  0.47563205     0.01700
C1791       C  0.94176349  0.39477718  0.46228273    -0.14300
C1792       C  0.94796601  0.41781366  0.47281709    -0.12000
C1793       C  0.95905307  0.41974121  0.49704419     0.01300
C1794       C  0.96231928  0.39798256  0.51137199    -0.24200
H1795       H  0.92510886  0.31973479  0.40921282     0.09300
H1796       H  0.93440755  0.36010791  0.42551517     0.12800
H1797       H  0.94000011  0.28715861  0.48253060     0.11600
H1798       H  0.95586234  0.31340522  0.51725939     0.12800
H1799       H  0.96644359  0.35420415  0.53480507     0.11800
H1800       H  0.93335891  0.39498117  0.44355965     0.08900
H1801       H  0.94494591  0.43423542  0.46136873     0.12100
H1802       H  0.97094348  0.39915508  0.53009212     0.14000
C1803       C  0.96237511  0.58871817  0.50721356    -0.01500
C1804       C  0.97663386  0.60969267  0.50099093    -0.09500
C1805       C  0.96814352  0.63347448  0.50683317    -0.18400
C1806       C  0.94509259  0.63710541  0.51974906     0.04000
C1807       C  0.92983889  0.61584543  0.52458303     0.18200
C1808       C  0.93856173  0.59180527  0.51823302    -0.19800
C1809       C  0.90645288  0.61872834  0.53656357    -0.21000
C1810       C  0.89824976  0.64211038  0.54450583    -0.19600
C1811       C  0.91349038  0.66315139  0.54127399     0.19600
C1812       C  0.93708843  0.66094433  0.52877220     0.01700
C1813       C  0.95223426  0.68247074  0.52697210    -0.14300
C1814       C  0.94479360  0.70490142  0.53808951    -0.12000
C1815       C  0.92156474  0.70723456  0.55071646     0.01300
C1816       C  0.90566107  0.68621722  0.55133881    -0.24200
H1817       H  0.99497345  0.60760646  0.49214755     0.09300
H1818       H  0.98033528  0.64853435  0.50144152     0.12800
H1819       H  0.92750653  0.57556110  0.52307882     0.11600
H1820       H  0.89458161  0.60274260  0.54016728     0.12800
H1821       H  0.88019941  0.64360728  0.55403551     0.11800
H1822       H  0.97051773  0.68239454  0.51813512     0.08900
H1823       H  0.95802844  0.72015774  0.53752437     0.12100
H1824       H  0.88728052  0.68744517  0.56014723     0.14000
C1825       C  0.05205857  0.58432367  0.47665428    -0.01500
C1826       C  0.05457859  0.60307229  0.49519319    -0.09500
C1827       C  0.06060366  0.62756527  0.48818861    -0.18400
C1828       C  0.06416288  0.63404983  0.46223021     0.04000
C1829       C  0.06306338  0.61448785  0.44382106     0.18200
C1830       C  0.05701617  0.59011305  0.45114058    -0.19800
C1831       C  0.06675897  0.61948439  0.41792637    -0.21000
C1832       C  0.07082148  0.64358457  0.40966641    -0.19600
C1833       C  0.07118163  0.66341181  0.42704321     0.19600
C1834       C  0.06805444  0.65912094  0.45361820     0.01700
C1835       C  0.06841963  0.68019551  0.47005293    -0.14300
C1836       C  0.07204912  0.70433795  0.46040078    -0.12000
C1837       C  0.07548844  0.70826768  0.43413554     0.01300
C1838       C  0.07458749  0.68756012  0.41772041    -0.24200
H1839       H  0.05007102  0.59917675  0.51495732     0.09300
H1840       H  0.06143871  0.64120951  0.50331802     0.12800
H1841       H  0.05454470  0.57580633  0.43667243     0.11600
H1842       H  0.06607843  0.60465810  0.40385147     0.12800
H1843       H  0.07336641  0.64677953  0.38940460     0.11800
H1844       H  0.06600724  0.67853126  0.49042154     0.08900
H1845       H  0.07271096  0.71988957  0.47358768     0.12100
H1846       H  0.07652716  0.69024900  0.39730137     0.14000
C1847       C  0.50680978  0.03272331  0.58858706    -0.01500
C1848       C  0.49703803  0.05645908  0.59321645    -0.09500
C1849       C  0.49005876  0.06388105  0.61795647    -0.18400
C1850       C  0.49183221  0.04737112  0.63888059     0.04000
C1851       C  0.50218527  0.02348883  0.63417439     0.18200
C1852       C  0.51019696  0.01670976  0.60945225    -0.19800
C1853       C  0.50326751  0.00602390  0.65388409    -0.21000
C1854       C  0.49273268  0.01113097  0.67771007    -0.19600
C1855       C  0.48188955  0.03429949  0.68287398     0.19600
C1856       C  0.48244965  0.05314263  0.66392370     0.01700
C1857       C  0.47318173  0.07679239  0.67077058    -0.14300
C1858       C  0.46197915  0.08096102  0.69456517    -0.12000
C1859       C  0.45899197  0.06168628  0.71236599     0.01300
C1860       C  0.46996262  0.03856622  0.70663788    -0.24200
H1861       H  0.49402390  0.06908503  0.57748965     0.09300
H1862       H  0.48207231  0.08217558  0.61986076     0.12800
H1863       H  0.51735290  0.99812218  0.60615921     0.11600
H1864       H  0.51154459  0.98794162  0.65058971     0.12800
H1865       H  0.49292526  0.99678016  0.69213885     0.11800
H1866       H  0.47435873  0.09246694  0.65811339     0.08900
H1867       H  0.45522138  0.09948013  0.69880613     0.12100
H1868       H  0.46836819  0.02351190  0.72018448     0.14000
C1869       C  0.49753722  0.94778302  0.58309396    -0.01500
C1870       C  0.48240820  0.95210752  0.60466434    -0.09500
C1871       C  0.49033779  0.94499341  0.62911359    -0.18400
C1872       C  0.51418348  0.93394292  0.63294297     0.04000
C1873       C  0.52870527  0.92821847  0.61083073     0.18200
C1874       C  0.52013335  0.93471615  0.58634211    -0.19800
C1875       C  0.55236760  0.91716390  0.61329471    -0.21000
C1876       C  0.56234095  0.91232507  0.63725775    -0.19600
C1877       C  0.54894351  0.91839009  0.65945787     0.19600
C1878       C  0.52457230  0.92907105  0.65776763     0.01700
C1879       C  0.51213926  0.93495243  0.68100583    -0.14300
C1880       C  0.52339751  0.93020802  0.70477882    -0.12000
C1881       C  0.54740653  0.91948317  0.70630616     0.01300
C1882       C  0.56004186  0.91395122  0.68335421    -0.24200
H1883       H  0.46489062  0.96217772  0.60282345     0.09300
H1884       H  0.47793329  0.94941837  0.64478204     0.12800
H1885       H  0.53218480  0.93133318  0.56996414     0.11600
H1886       H  0.56351161  0.91268810  0.59654197     0.12800
H1887       H  0.58087883  0.90405548  0.63843016     0.11800
H1888       H  0.49370027  0.94323761  0.68139868     0.08900
H1889       H  0.51303906  0.93457189  0.72204460     0.12100
H1890       H  0.57888544  0.90632557  0.68399810     0.14000
C1891       C  0.29327463  0.05939971  0.43770554    -0.01500
C1892       C  0.29653828  0.05637064  0.46407979    -0.09500
C1893       C  0.32072721  0.05349477  0.47455073    -0.18400
C1894       C  0.34249318  0.05347007  0.45882217     0.04000
C1895       C  0.33883775  0.05575027  0.43203666     0.18200
C1896       C  0.31459130  0.05858989  0.42189121    -0.19800
C1897       C  0.35941029  0.05527103  0.41535299    -0.21000
C1898       C  0.38363500  0.05195418  0.42455087    -0.19600
C1899       C  0.38800440  0.04937332  0.45072364     0.19600
C1900       C  0.36767058  0.05072074  0.46840634     0.01700
C1901       C  0.37353642  0.04863974  0.49471029    -0.14300
C1902       C  0.39817541  0.04345319  0.50278670    -0.12000
C1903       C  0.41763996  0.04026937  0.48498480     0.01300
C1904       C  0.41251980  0.04414064  0.45911023    -0.24200
H1905       H  0.28041237  0.05704303  0.47673074     0.09300
H1906       H  0.32186332  0.05143293  0.49498666     0.12800
H1907       H  0.31228327  0.06049964  0.40141454     0.11600
H1908       H  0.35670877  0.05710326  0.39493388     0.12800
H1909       H  0.39906541  0.05107106  0.41101980     0.11800
H1910       H  0.35931226  0.05000935  0.50934840     0.08900
H1911       H  0.40158643  0.03994173  0.52283880     0.12100
H1912       H  0.42743335  0.04126521  0.44523301     0.14000
C1913       C  0.41018582  0.95396929  0.51854946    -0.01500
C1914       C  0.40526009  0.92840470  0.51830912    -0.09500
C1915       C  0.38071462  0.91946905  0.52294912    -0.18400
C1916       C  0.36036691  0.93601074  0.52762903     0.04000
C1917       C  0.36553078  0.96185688  0.52643736     0.18200
C1918       C  0.39000963  0.97040182  0.52206008    -0.19800
C1919       C  0.34636418  0.97927531  0.53014104    -0.21000
C1920       C  0.32213451  0.97168012  0.53604360    -0.19600
C1921       C  0.31644894  0.94647327  0.53856513     0.19600
C1922       C  0.33527812  0.92815900  0.53402230     0.01700
C1923       C  0.32823956  0.90299599  0.53697708    -0.14300
C1924       C  0.30402796  0.89651290  0.54540994    -0.12000
C1925       C  0.28591784  0.91479405  0.55098754     0.01300
C1926       C  0.29219259  0.93967940  0.54666996    -0.24200
H1927       H  0.42045631  0.91534781  0.51527103     0.09300
H1928       H  0.37822697  0.89959574  0.52303581     0.12800
H1929       H  0.39341714  0.99025916  0.52155668     0.11600
H1930       H  0.35024583  0.99900746  0.52891675     0.12800
H1931       H  0.30786008  0.98569888  0.53929581     0.11800
H1932       H  0.34126614  0.88800468  0.53360300     0.08900
H1933       H  0.29963929  0.87705964  0.54812024     0.12100
H1934       H  0.27860560  0.95405436  0.55114336     0.14000
C1935       C  0.50489243  0.03290509  0.42422989    -0.01500
C1936       C  0.52627570  0.04821145  0.42302006    -0.09500
C1937       C  0.53807723  0.05325065  0.39967495    -0.18400
C1938       C  0.52889983  0.04307915  0.37648909     0.04000
C1939       C  0.50601888  0.02943304  0.37744698     0.18200
C1940       C  0.49435976  0.02439220  0.40111054    -0.19800
C1941       C  0.49540504  0.02013019  0.35484050    -0.21000
C1942       C  0.50725594  0.02367244  0.33135754    -0.19600
C1943       C  0.53042729  0.03602207  0.32985732     0.19600
C1944       C  0.54170495  0.04566344  0.35248187     0.01700
C1945       C  0.56572112  0.05667959  0.35021289    -0.14300
C1946       C  0.57766666  0.05864884  0.32651471    -0.12000
C1947       C  0.56605843  0.05036165  0.30384755     0.01300
C1948       C  0.54243178  0.03869177  0.30588147    -0.24200
H1949       H  0.53487676  0.05521950  0.44037570     0.09300
H1950       H  0.55464395  0.06479865  0.40044562     0.12800
H1951       H  0.47782042  0.01258907  0.40157057     0.11600
H1952       H  0.47791071  0.00976997  0.35533981     0.12800
H1953       H  0.49849992  0.01614605  0.31430295     0.11800
H1954       H  0.57603229  0.06350613  0.36651935     0.08900
H1955       H  0.59630883  0.06676522  0.32609066     0.12100
H1956       H  0.53308571  0.03206021  0.28877058     0.14000
C1957       C  0.50102073  0.94954819  0.42365145    -0.01500
C1958       C  0.47897931  0.93549572  0.42065027    -0.09500
C1959       C  0.46841611  0.93169104  0.39659278    -0.18400
C1960       C  0.47972424  0.94163639  0.37446709     0.04000
C1961       C  0.50346658  0.95350204  0.37711523     0.18200
C1962       C  0.51368374  0.95778275  0.40162911    -0.19800
C1963       C  0.51641242  0.96151729  0.35530739    -0.21000
C1964       C  0.50608182  0.95820485  0.33100820    -0.19600
C1965       C  0.48202502  0.94787840  0.32798488     0.19600
C1966       C  0.46829104  0.94010105  0.34983970     0.01700
C1967       C  0.44330554  0.93192143  0.34629189    -0.14300
C1968       C  0.43290100  0.93007377  0.32197271    -0.12000
C1969       C  0.44701955  0.93578891  0.30009489     0.01300
C1970       C  0.47150187  0.94530237  0.30333645    -0.24200
H1971       H  0.46892098  0.92856605  0.43715203     0.09300
H1972       H  0.45127871  0.92095453  0.39591806     0.12800
H1973       H  0.53090331  0.96844718  0.40359831     0.11600
H1974       H  0.53464001  0.97041660  0.35704621     0.12800
H1975       H  0.51668840  0.96440526  0.31453587     0.11800
H1976       H  0.43108502  0.92736034  0.36204515     0.08900
H1977       H  0.41353425  0.92399115  0.32035134     0.12100
H1978       H  0.48256638  0.95024601  0.28671824     0.14000
C1979       C  0.70364564  0.06327408  0.55765564    -0.01500
C1980       C  0.68095182  0.06873952  0.57040504    -0.09500
C1981       C  0.65765081  0.06435566  0.55912228    -0.18400
C1982       C  0.65575595  0.05312602  0.53483213     0.04000
C1983       C  0.67839811  0.04588261  0.52244216     0.18200
C1984       C  0.70201614  0.05163455  0.53347676    -0.19800
C1985       C  0.67720908  0.03241027  0.49945782    -0.21000
C1986       C  0.65405032  0.02546000  0.48901667    -0.19600
C1987       C  0.63144595  0.03282395  0.50061166     0.19600
C1988       C  0.63207950  0.04763313  0.52314883     0.01700
C1989       C  0.60893448  0.05601376  0.53331621    -0.14300
C1990       C  0.58610393  0.04792983  0.52314563    -0.12000
C1991       C  0.58542667  0.03159316  0.50226784     0.01300
C1992       C  0.60818914  0.02483545  0.49042024    -0.24200
H1993       H  0.68085356  0.07607185  0.58966755     0.09300
H1994       H  0.64137606  0.06896668  0.57047984     0.12800
H1995       H  0.71898404  0.04689405  0.52312256     0.11600
H1996       H  0.69430694  0.02650890  0.48992000     0.12800
H1997       H  0.65382547  0.01422593  0.47177579     0.11800
H1998       H  0.60785349  0.06860684  0.54934943     0.08900
H1999       H  0.56881621  0.05377650  0.53235853     0.12100
H2000       H  0.60789810  0.01217529  0.47424340     0.14000
C2001       C  0.58568570  0.95371751  0.50580165    -0.01500
C2002       C  0.60726862  0.96024610  0.51971100    -0.09500
C2003       C  0.63138284  0.95634297  0.50952198    -0.18400
C2004       C  0.63467825  0.94580438  0.48488768     0.04000
C2005       C  0.61269596  0.93818051  0.47146116     0.18200
C2006       C  0.58868924  0.94203270  0.48199880    -0.19800
C2007       C  0.61465569  0.92752994  0.44711580    -0.21000
C2008       C  0.63797258  0.92455503  0.43554076    -0.19600
C2009       C  0.65998601  0.93214321  0.44798613     0.19600
C2010       C  0.65879440  0.94284562  0.47284962     0.01700
C2011       C  0.68177291  0.95027257  0.48429525    -0.14300
C2012       C  0.70487997  0.94663415  0.47179895    -0.12000
C2013       C  0.70595153  0.93563950  0.44743630     0.01300
C2014       C  0.68321567  0.92892360  0.43558426    -0.24200
H2015       H  0.60552560  0.96966626  0.53795986     0.09300
H2016       H  0.64704527  0.96240566  0.52104507     0.12800
H2017       H  0.57216831  0.93701325  0.47096033     0.11600
H2018       H  0.59797375  0.92168382  0.43680015     0.12800
H2019       H  0.63877640  0.91632626  0.41661364     0.11800
H2020       H  0.68250324  0.95873438  0.50298687     0.08900
H2021       H  0.72203083  0.95190649  0.48157677     0.12100
H2022       H  0.68353264  0.92104880  0.41648539     0.14000
loop_ 
_geom_bond_atom_site_label_1 
_geom_bond_atom_site_label_2 
_geom_bond_distance 
_geom_bond_site_symmetry_2 
_ccdc_geom_bond_type 
O1            C9   1.288       .  A
O1          Co21   2.075       .  S
O2           C10   1.267       .  A
O2          Co22   1.988   1_565  S
O3           C11   1.271       .  A
O3          Co23   1.969       .  S
O4           C12   1.260       .  A
O4          Co24   1.968       .  S
O5           C11   1.283       .  A
O5          Co22   2.044   1_565  S
O6           C12   1.265       .  A
O6          Co21   2.021       .  S
O7           C10   1.269       .  A
O7          Co24   2.000       .  S
O8            C9   1.268       .  A
O8          Co23   1.928       .  S
C9         C2001   1.485       .  S
C10        C1913   1.487       .  S
C11        C1869   1.492       .  S
C12        C1957   1.487       .  S
O13          C26   1.268       .  A
O13         Co21   1.968   1_545  S
O14          C27   1.264       .  A
O14         Co22   1.985       .  S
O15          C28   1.293       .  A
O15         Co23   2.086   1_545  S
O16          C29   1.270       .  A
O16         Co24   1.994   1_545  S
O17          C29   1.275       .  A
O17         Co22   1.996       .  S
O18          C28   1.270       .  A
O18         Co21   1.919   1_545  S
O19          C26   1.281       .  A
O19         Co24   2.048   1_545  S
O20          C27   1.263       .  A
O20         Co23   2.007   1_545  S
Co21         O25   2.046       .  S
Co22         O25   2.056   1_545  S
Co23         O25   2.031       .  S
Co24         O25   2.044       .  S
C26        C1935   1.495       .  S
C27        C1847   1.490       .  S
C28        C1991   1.482       .  S
C29        C1903   1.477       .  S
O30          C38   1.268       .  A
O30         Co50   1.997   1_455  S
O31          C39   1.290       .  A
O31         Co51   2.084   1_455  S
O32          C40   1.263       .  A
O32         Co52   1.970       .  S
O33          C41   1.271       .  A
O33         Co53   1.962       .  S
O34          C40   1.267       .  A
O34         Co51   2.017   1_455  S
O35          C41   1.281       .  A
O35         Co50   2.034   1_455  S
O36          C39   1.269       .  A
O36         Co53   1.933       .  S
O37          C38   1.271       .  A
O37         Co52   1.994       .  S
C38        C1825   1.480       .  S
C39        C1759   1.493       .  S
C40        C1715   1.482       .  S
C41        C1683   1.480       .  S
O42          C55   1.260       .  A
O42         Co50   1.964       .  S
O43          C56   1.273       .  A
O43         Co51   1.981       .  S
O44          C57   1.271       .  A
O44         Co52   2.000   1_655  S
O45          C58   1.290       .  A
O45         Co53   2.074   1_655  S
O46          C58   1.273       .  A
O46         Co51   1.930       .  S
O47          C57   1.270       .  A
O47         Co50   1.991       .  S
O48          C55   1.263       .  A
O48         Co53   2.022   1_655  S
O49          C56   1.277       .  A
O49         Co52   2.020   1_655  S
Co50         O54   2.036   1_655  S
Co51         O54   2.045   1_655  S
Co52         O54   2.036       .  S
Co53         O54   2.039       .  S
C55        C1693   1.486       .  S
C56        C1749   1.488       .  S
C57        C1803   1.473       .  S
C58        C1793   1.487       .  S
O59          C67   1.265       .  A
O59         Co79   2.000       .  S
O60          C68   1.263       .  A
O60         Co80   1.965   1_554  S
O61          C69   1.262       .  A
O61         Co81   1.956       .  S
O62          C70   1.252       .  A
O62         Co82   1.974   1_554  S
O63          C69   1.270       .  A
O63         Co80   2.020   1_554  S
O64          C70   1.258       .  A
O64         Co79   2.005       .  S
O65          C68   1.275   1_556  A
O65         Co82   2.045       .  S
O66          C67   1.250       .  A
O66         Co81   1.944       .  S
C67        C1627   1.456       .  S
C68        C1539   1.490       .  S
C69        C1507   1.490       .  S
C70        C1583   1.495       .  S
O71          C84   1.283       .  A
O71         Co79   2.027   1_556  S
O72          C85   1.269       .  A
O72         Co80   2.023       .  S
O73          C86   1.253       .  A
O73         Co81   1.954   1_556  S
O74          C87   1.259       .  A
O74         Co82   1.981       .  S
O75          C87   1.264       .  A
O75         Co80   1.996       .  S
O76          C86   1.268       .  A
O76         Co79   2.026   1_556  S
O77          C84   1.280       .  A
O77         Co82   1.967       .  S
O78          C85   1.248       .  A
O78         Co81   1.953   1_556  S
Co79         O83   2.187       .  S
Co80         O83   2.112   1_556  S
Co81         O83   1.995       .  S
Co82         O83   2.013   1_556  S
C84        C1617   1.498       .  S
C85        C1517   1.466       .  S
C86        C1649   1.485       .  S
C87        C1561   1.480       .  S
C88        C1881   1.503       .  S
C88          C89   1.409       .  A
C88          C93   1.418       .  A
C89          C90   1.401       .  A
C89          H94   1.083       .  S
C90        C1473   1.492       .  S
C90          C91   1.400       .  A
C91          C92   1.411       .  A
C91          H95   1.081       .  S
C92        C1451   1.507       .  S
C92          C93   1.419       .  A
C93          H96   1.082       .  S
C97        C1407   1.487       .  S
C97          N98   1.357       .  A
C97         N102   1.360       .  A
N98          C99   1.358       .  A
C99        C1429   1.488       .  S
C99         N100   1.361       .  A
N100        C101   1.363       .  A
C101       C1485   1.489       .  S
C101        N102   1.362       .  A
C103       C1815   1.507       .  S
C103        C104   1.411       .  A
C103        C108   1.415       .  A
C104        C105   1.406       .  A
C104        H109   1.080       .  S
C105       C1441   1.492       .  S
C105        C106   1.403       .  A
C106        C107   1.408       .  A
C106        H110   1.082       .  S
C107       C1385   1.501       .  S
C107        C108   1.410       .  A
C108        H111   1.080       .  S
C112       C1363   1.491       .  S
C112        C113   1.407       .  A
C112        C117   1.413       .  A
C113        C114   1.403       .  A
C113        H118   1.084       .  S
C114       C1419   1.484       .  S
C114        C115   1.400       .  A
C115        C116   1.406       .  A
C115        H119   1.083       .  S
C116       C1573   1.499       .  S
C116        C117   1.415       .  A
C117        H120   1.083       .  S
C121       C1319   1.487       .  S
C121        N122   1.360       .  A
C121        N126   1.361       .  A
N122        C123   1.358       .  A
C123       C1353   1.484       .  S
C123        N124   1.358       .  A
N124        C125   1.358       .  A
C125       C1309   1.487       .  S
C125        N126   1.361       .  A
C127       C1661   1.502       .  S
C127        C128   1.411       .  A
C127        C132   1.424       .  A
C128        C129   1.397       .  A
C128        H133   1.084       .  S
C129       C1341   1.481       .  S
C129        C130   1.396       .  A
C130        C131   1.402       .  A
C130        H134   1.085       .  S
C131       C1287   1.496       .  S
C131        C132   1.419       .  A
C132        H135   1.083       .  S
C136       C1253   1.497       .  S
C136        C137   1.406       .  A
C136        C141   1.416       .  A
C137        C138   1.399       .  A
C137        H142   1.083       .  S
C138       C1331   1.489       .  S
C138        C139   1.401       .  A
C139        C140   1.411       .  A
C139        H143   1.082       .  S
C140       C1859   1.504       .  S
C140        C141   1.418       .  A
C141        H144   1.082       .  S
C145       C1243   1.503       .  S
C145        C146   1.407       .  A
C145        C150   1.418       .  A
C146        C147   1.403       .  A
C146        H151   1.082       .  S
C147       C1297   1.488       .  S
C147        C148   1.402       .  A
C148        C149   1.409       .  A
C148        H152   1.083       .  S
C149       C1771   1.501       .  S
C149        C150   1.414       .  A
C150        H153   1.082       .  S
O154        C162   1.271   1_545  A
O154       Co174   1.967       .  S
O155        C163   1.266   1_565  A
O155       Co175   1.986       .  S
O156        C164   1.267       .  A
O156       Co176   1.993       .  S
O157        C165   1.291   1_554  A
O157       Co177   2.095       .  S
O158        C164   1.269   1_554  A
O158       Co175   1.987       .  S
O159        C165   1.269       .  A
O159       Co174   1.922       .  S
O160        C163   1.265       .  A
O160       Co177   1.996       .  S
O161        C162   1.281       .  A
O161       Co176   2.040       .  S
C162       C1265   1.487       .  S
C163       C1177   1.482       .  S
C164       C1121   1.472       .  S
C165       C1187   1.489   1_556  S
O166        C179   1.291   1_556  A
O166       Co174   2.081       .  S
O167        C180   1.272       .  A
O167       Co175   1.998       .  S
O168        C181   1.264       .  A
O168       Co176   1.982       .  S
O169        C182   1.276       .  A
O169       Co177   1.987   1_565  S
O170        C182   1.279       .  A
O170       Co175   2.020       .  S
O171        C181   1.265   1_545  A
O171       Co174   2.010       .  S
O172        C179   1.272       .  A
O172       Co177   1.922       .  S
O173        C180   1.273       .  A
O173       Co176   1.990   1_554  S
Co174       O178   2.019   1_546  S
Co175       O178   2.032       .  S
Co176       O178   2.048   1_556  S
Co177       O178   2.029   1_545  S
C179       C1221   1.484       .  S
C180       C1111   1.476       .  S
C181       C1463   1.489       .  S
C182       C1143   1.494       .  S
C183       C1077   1.489       .  S
C183        N184   1.361       .  A
C183        N188   1.362       .  A
N184        C185   1.357       .  A
C185       C1055   1.488       .  S
C185        N186   1.356       .  A
N186        C187   1.359       .  A
C187       C1033   1.487       .  S
C187        N188   1.363       .  A
C189       C1605   1.501       .  S
C189        C190   1.413       .  A
C189        C194   1.417       .  A
C190        C191   1.401       .  A
C190        H195   1.083       .  S
C191       C1089   1.486       .  S
C191        C192   1.399       .  A
C192        C193   1.404       .  A
C192        H196   1.084       .  S
C193       C1133   1.495       .  S
C193        C194   1.415       .  A
C194        H197   1.083       .  S
C198       C1023   1.511       .  S
C198        C199   1.413       .  A
C198        C203   1.417       .  A
C199        C200   1.406       .  A
C199        H204   1.081       .  S
C200       C1067   1.490       .  S
C200        C201   1.402       .  A
C201        C202   1.403       .  A
C201        H205   1.083       .  S
C202       C1925   1.497       .  S
C202        C203   1.414       .  A
C203        H206   1.081       .  S
C207        C989   1.503       .  S
C207        C208   1.411       .  A
C207        C212   1.419       .  A
C208        C209   1.398       .  A
C208        H213   1.082       .  S
C209       C1045   1.487       .  S
C209        C210   1.397       .  A
C210        C211   1.408       .  A
C210        H214   1.083       .  S
C211       C1727   1.498       .  S
C211        C212   1.415       .  A
C212        H215   1.082       .  S
C216        C945   1.484       .  S
C216        N217   1.361       .  A
C216        N221   1.360       .  A
N217        C218   1.359       .  A
C218        C967   1.486       .  S
C218        N219   1.358       .  A
N219        C220   1.358       .  A
C220        C923   1.485       .  S
C220        N221   1.358       .  A
C222       C1781   1.498       .  S
C222        C223   1.409       .  A
C222        C227   1.416       .  A
C223        C224   1.400       .  A
C223        H228   1.083       .  S
C224        C979   1.491       .  S
C224        C225   1.401       .  A
C225        C226   1.407       .  A
C225        H229   1.083       .  S
C226        C901   1.497       .  S
C226        C227   1.415       .  A
C227        H230   1.083       .  S
C231        C879   1.487       .  S
C231        C232   1.415       .  A
C231        C236   1.402       .  A
C232        C233   1.415       .  A
C232        H237   1.083       .  S
C233       C1551   1.497       .  S
C233        C234   1.411       .  A
C234        C235   1.399       .  A
C234        H238   1.083       .  S
C235        C957   1.485       .  S
C235        C236   1.396       .  A
C236        H239   1.084       .  S
C240       C1155   1.514       .  S
C240        C241   1.413       .  A
C240        C245   1.424       .  A
C241        C242   1.398       .  A
C241        H246   1.080       .  S
C242        C935   1.485       .  S
C242        C243   1.397       .  A
C243        C244   1.406       .  A
C243        H247   1.083       .  S
C244       C1947   1.507       .  S
C244        C245   1.419       .  A
C245        H248   1.081       .  S
O249        C257   1.301       .  A
O249       Co269   2.100       .  S
O250        C258   1.301   1_554  A
O250       Co270   2.094       .  S
O251        C259   1.271   1_655  A
O251       Co271   1.973       .  S
O252        C260   1.268   1_455  A
O252       Co272   1.966       .  S
O253        C259   1.272       .  A
O253       Co270   2.013       .  S
O254        C260   1.273       .  A
O254       Co269   2.021       .  S
O255        C258   1.275       .  A
O255       Co272   1.891       .  S
O256        C257   1.279   1_554  A
O256       Co271   1.915       .  S
C257       C1375   1.491       .  S
C258        C869   1.463       .  S
C259        C813   1.493   1_455  S
C260       C1001   1.490       .  S
O261        C274   1.259       .  A
O261       Co269   1.963   1_455  S
O262        C275   1.268   1_455  A
O262       Co270   1.986       .  S
O263        C276   1.258       .  A
O263       Co271   2.006       .  S
O264        C277   1.261       .  A
O264       Co272   2.014       .  S
O265        C277   1.262   1_554  A
O265       Co270   1.987       .  S
O266        C276   1.254   1_556  A
O266       Co269   1.966       .  S
O267        C274   1.269       .  A
O267       Co272   2.034       .  S
O268        C275   1.272       .  A
O268       Co271   2.017       .  S
Co269       O273   2.092   1_655  S
Co270       O273   2.094   1_554  S
Co271       O273   1.977   1_654  S
Co272       O273   1.980       .  S
C274        C791   1.484       .  S
C275        C847   1.474       .  S
C276        C891   1.471       .  S
C277       C1275   1.496       .  S
C278        C747   1.510       .  S
C278        C279   1.422       .  A
C278        C283   1.415       .  A
C279        C280   1.415       .  A
C279        H284   1.082       .  S
C280       C1891   1.495       .  S
C280        C281   1.403       .  A
C281        C282   1.396       .  A
C281        H285   1.084       .  S
C282        C769   1.483       .  S
C282        C283   1.400       .  A
C283        H286   1.081       .  S
C287        C725   1.487       .  S
C287        N288   1.357       .  A
C287        N292   1.363       .  A
N288        C289   1.355       .  A
C289        C703   1.484       .  S
C289        N290   1.356       .  A
N290        C291   1.360       .  A
C291        C781   1.487       .  S
C291        N292   1.364       .  A
C293       C1671   1.489       .  S
C293        C294   1.404       .  A
C293        C298   1.407       .  A
C294        C295   1.401       .  A
C294        H299   1.083       .  S
C295        C737   1.487       .  S
C295        C296   1.404       .  A
C296        C297   1.411       .  A
C296        H300   1.083       .  S
C297        C835   1.493       .  S
C297        C298   1.409       .  A
C298        H301   1.083       .  S
C302       C1199   1.498       .  S
C302        C303   1.418       .  A
C302        C307   1.411       .  A
C303        C304   1.413       .  A
C303        H308   1.083       .  S
C304       C1495   1.493       .  S
C304        C305   1.404       .  A
C305        C306   1.397       .  A
C305        H309   1.084       .  S
C306        C715   1.486       .  S
C306        C307   1.400       .  A
C307        H310   1.083       .  S
C311        C681   1.495       .  S
C311        N312   1.363       .  A
C311        N316   1.366       .  A
N312        C313   1.360       .  A
C313        C649   1.490       .  S
C313        N314   1.357       .  A
N314        C315   1.359       .  A
C315        C659   1.493       .  S
C315        N316   1.364       .  A
C317       C1737   1.506       .  S
C317        C318   1.414       .  A
C317        C322   1.414       .  A
C318        C319   1.404       .  A
C318        H323   1.081       .  S
C319        C693   1.492       .  S
C319        C320   1.402       .  A
C320        C321   1.409       .  A
C320        H324   1.082       .  S
C321        C803   1.502       .  S
C321        C322   1.410       .  A
C322        H325   1.080       .  S
C326       C1209   1.493       .  S
C326        C327   1.409       .  A
C326        C331   1.409       .  A
C327        C328   1.410       .  A
C327        H332   1.082       .  S
C328       C1529   1.497       .  S
C328        C329   1.411       .  A
C329        C330   1.401       .  A
C329        H333   1.083       .  S
C330        C671   1.488       .  S
C330        C331   1.402       .  A
C331        H334   1.083       .  S
C335        C615   1.514       .  S
C335        C336   1.421       .  A
C335        C340   1.414       .  A
C336        C337   1.419       .  A
C336        H341   1.078       .  S
C337       C1979   1.510       .  S
C337        C338   1.411       .  A
C338        C339   1.396       .  A
C338        H342   1.082       .  S
C339        C637   1.487       .  S
C339        C340   1.399       .  A
C340        H343   1.081       .  S
C344        C561   1.485       .  S
C344        N345   1.353       .  A
C344        N349   1.355       .  A
N345        C346   1.358       .  A
C346        C593   1.491       .  S
C346        N347   1.366       .  A
N347        C348   1.367       .  A
C348        C571   1.489       .  S
C348        N349   1.360       .  A
C350       C2013   1.499       .  S
C350        C351   1.414       .  A
C350        C355   1.408       .  A
C351        C352   1.416       .  A
C351        H356   1.082       .  S
C352        C527   1.505       .  S
C352        C353   1.411       .  A
C353        C354   1.402       .  A
C353        H357   1.081       .  S
C354        C605   1.492       .  S
C354        C355   1.402       .  A
C355        H358   1.083       .  S
C359        C825   1.497       .  S
C359        C360   1.409       .  A
C359        C364   1.415       .  A
C360        C361   1.406       .  A
C360        H365   1.082       .  S
C361        C583   1.503       .  S
C361        C362   1.404       .  A
C362        C363   1.409       .  A
C362        H366   1.082       .  S
C363       C1705   1.498       .  S
C363        C364   1.415       .  A
C364        H367   1.083       .  S
C368       C1099   1.488       .  S
C368        C369   1.404       .  A
C368        C373   1.413       .  A
C369        C370   1.400       .  A
C369        H374   1.084       .  S
C370        C549   1.486       .  S
C370        C371   1.402       .  A
C371        C372   1.409       .  A
C371        H375   1.083       .  S
C372       C1595   1.500       .  S
C372        C373   1.417       .  A
C373        H376   1.083       .  S
C377        C483   1.489       .  S
C377        N378   1.359       .  A
C377        N382   1.357       .  A
N378        C379   1.362       .  A
C379        C461   1.487       .  S
C379        N380   1.362       .  A
N380        C381   1.361       .  A
C381        C505   1.487       .  S
C381        N382   1.360       .  A
C383       C1969   1.496       .  S
C383        C384   1.410       .  A
C383        C388   1.406       .  A
C384        C385   1.416       .  A
C384        H389   1.082       .  S
C385       C1165   1.497       .  S
C385        C386   1.412       .  A
C386        C387   1.399       .  A
C386        H390   1.082       .  S
C387        C517   1.485       .  S
C387        C388   1.399       .  A
C388        H391   1.083       .  S
C392        C451   1.517       .  S
C392        C393   1.417       .  A
C392        C397   1.424       .  A
C393        C394   1.404       .  A
C393        H398   1.081       .  S
C394        C495   1.492       .  S
C394        C395   1.398       .  A
C395        C396   1.404       .  A
C395        H399   1.084       .  S
C396       C1837   1.502       .  S
C396        C397   1.416       .  A
C397        H400   1.081       .  S
C401        C857   1.482       .  S
C401        C402   1.403       .  A
C401        C406   1.401       .  A
C402        C403   1.405       .  A
C402        H407   1.083       .  S
C403        C473   1.483       .  S
C403        C404   1.403       .  A
C404        C405   1.406       .  A
C404        H408   1.082       .  S
C405       C1639   1.486       .  S
C405        C406   1.403       .  A
C406        H409   1.082       .  S
O410        C418   1.287   1_655  A
O410       Co430   2.071       .  S
O411        C419   1.267       .  A
O411       Co431   1.986       .  S
O412        C420   1.270   1_565  A
O412       Co432   1.967       .  S
O413        C421   1.266   1_545  A
O413       Co433   1.975       .  S
O414        C420   1.284       .  A
O414       Co431   2.051       .  S
O415        C421   1.269       .  A
O415       Co430   2.022       .  S
O416        C419   1.271   1_655  A
O416       Co433   2.002       .  S
O417        C418   1.270       .  A
O417       Co432   1.934       .  S
C418       C1397   1.484   1_455  S
C419       C1231   1.483       .  S
C420       C1011   1.495   1_545  S
C421        C627   1.493       .  S
O422        C435   1.274   1_565  A
O422       Co430   1.980       .  S
O423        C436   1.261   1_545  A
O423       Co431   1.978       .  S
O424        C437   1.288   1_455  A
O424       Co432   2.071       .  S
O425        C438   1.270       .  A
O425       Co433   1.993       .  S
O426        C438   1.274   1_455  A
O426       Co431   1.996       .  S
O427        C437   1.273       .  A
O427       Co430   1.940       .  S
O428        C435   1.279       .  A
O428       Co433   2.028       .  S
O429        C436   1.265       .  A
O429       Co432   2.015       .  S
Co430       O434   2.041   1_565  S
Co431       O434   2.046   1_455  S
Co432       O434   2.036   1_465  S
Co433       O434   2.043       .  S
C435        C539   1.491       .  S
C436        C759   1.488       .  S
C437        C439   1.492       .  S
C438        C913   1.476       .  S
C439        C440   1.403       .  A
C439        C444   1.404   1_655  A
C440        C441   1.408       .  A
C440        H453   1.083       .  S
C441        C442   1.419   1_655  A
C441        H454   1.078       .  S
C442        C448   1.441       .  A
C442        C443   1.423       .  A
C443        C445   1.399       .  A
C443        C444   1.407       .  A
C444        H455   1.085       .  S
C445        C446   1.389       .  A
C445        H456   1.084       .  S
C446        C447   1.400       .  A
C446        H457   1.084       .  S
C447        C448   1.421       .  A
C447        C452   1.409       .  A
C448        C449   1.416       .  A
C449        C450   1.407       .  A
C449        H458   1.078       .  S
C450        C451   1.409       .  A
C450        H459   1.081       .  S
C451        C452   1.411       .  A
C452        H460   1.082       .  S
C461        C462   1.402       .  A
C461        C466   1.404       .  A
C462        C463   1.395       .  A
C462        H475   1.083       .  S
C463        C464   1.414       .  A
C463        H476   1.078       .  S
C464        C470   1.430       .  A
C464        C465   1.422       .  A
C465        C467   1.400       .  A
C465        C466   1.407       .  A
C466        H477   1.084       .  S
C467        C468   1.391       .  A
C467        H478   1.084       .  S
C468        C469   1.400       .  A
C468        H479   1.084       .  S
C469        C470   1.423       .  A
C469        C474   1.406       .  A
C470        C471   1.414       .  A
C471        C472   1.394       .  A
C471        H480   1.078       .  S
C472        C473   1.400       .  A
C472        H481   1.083       .  S
C473        C474   1.402       .  A
C474        H482   1.085       .  S
C483        C484   1.402       .  A
C483        C488   1.405       .  A
C484        C485   1.399       .  A
C484        H497   1.083       .  S
C485        C486   1.416       .  A
C485        H498   1.077       .  S
C486        C492   1.433       .  A
C486        C487   1.422       .  A
C487        C489   1.400       .  A
C487        C488   1.407       .  A
C488        H499   1.084       .  S
C489        C490   1.391       .  A
C489        H500   1.084       .  S
C490        C491   1.400       .  A
C490        H501   1.084       .  S
C491        C492   1.424       .  A
C491        C496   1.409       .  A
C492        C493   1.414       .  A
C493        C494   1.397       .  A
C493        H502   1.077       .  S
C494        C495   1.403       .  A
C494        H503   1.083       .  S
C495        C496   1.403       .  A
C496        H504   1.084       .  S
C505        C506   1.401       .  A
C505        C510   1.406       .  A
C506        C507   1.391       .  A
C506        H519   1.083       .  S
C507        C508   1.413       .  A
C507        H520   1.078       .  S
C508        C514   1.429       .  A
C508        C509   1.422       .  A
C509        C511   1.401       .  A
C509        C510   1.410       .  A
C510        H521   1.084       .  S
C511        C512   1.394       .  A
C511        H522   1.084       .  S
C512        C513   1.401       .  A
C512        H523   1.084       .  S
C513        C514   1.423       .  A
C513        C518   1.410       .  A
C514        C515   1.413       .  A
C515        C516   1.391       .  A
C515        H524   1.078       .  S
C516        C517   1.399       .  A
C516        H525   1.084       .  S
C517        C518   1.404       .  A
C518        H526   1.084       .  S
C527        C528   1.408       .  A
C527        C532   1.407       .  A
C528        C529   1.398       .  A
C528        H541   1.082       .  S
C529        C530   1.411       .  A
C529        H542   1.078       .  S
C530        C536   1.434       .  A
C530        C531   1.423       .  A
C531        C533   1.400       .  A
C531        C532   1.410       .  A
C532        H543   1.083       .  S
C533        C534   1.391   1_565  A
C533        H544   1.084       .  S
C534        C535   1.401       .  A
C534        H545   1.083       .  S
C535        C536   1.420   1_545  A
C535        C540   1.405       .  A
C536        C537   1.418       .  A
C537        C538   1.404       .  A
C537        H546   1.078       .  S
C538        C539   1.401   1_565  A
C538        H547   1.083       .  S
C539        C540   1.408       .  A
C540        H548   1.084       .  S
C549        C550   1.401       .  A
C549        C554   1.402       .  A
C550        C551   1.397       .  A
C550        H563   1.083       .  S
C551        C552   1.416       .  A
C551        H564   1.075       .  S
C552        C558   1.430       .  A
C552        C553   1.422       .  A
C553        C555   1.399       .  A
C553        C554   1.404       .  A
C554        H565   1.084       .  S
C555        C556   1.390       .  A
C555        H566   1.084       .  S
C556        C557   1.399       .  A
C556        H567   1.084       .  S
C557        C558   1.423       .  A
C557        C562   1.406       .  A
C558        C559   1.414       .  A
C559        C560   1.395       .  A
C559        H568   1.075       .  S
C560        C561   1.402       .  A
C560        H569   1.083       .  S
C561        C562   1.403       .  A
C562        H570   1.084       .  S
C571        C572   1.404       .  A
C571        C576   1.404       .  A
C572        C573   1.394       .  A
C572        H585   1.083       .  S
C573        C574   1.412       .  A
C573        H586   1.077       .  S
C574        C580   1.432       .  A
C574        C575   1.424       .  A
C575        C577   1.400       .  A
C575        C576   1.412       .  A
C576        H587   1.084       .  S
C577        C578   1.393       .  A
C577        H588   1.084       .  S
C578        C579   1.401       .  A
C578        H589   1.084       .  S
C579        C580   1.420       .  A
C579        C584   1.409       .  A
C580        C581   1.414       .  A
C581        C582   1.397       .  A
C581        H590   1.077       .  S
C582        C583   1.405       .  A
C582        H591   1.082       .  S
C583        C584   1.409       .  A
C584        H592   1.083       .  S
C593        C594   1.402       .  A
C593        C598   1.405       .  A
C594        C595   1.404       .  A
C594        H607   1.083       .  S
C595        C596   1.418       .  A
C595        H608   1.077       .  S
C596        C602   1.434       .  A
C596        C597   1.421       .  A
C597        C599   1.399       .  A
C597        C598   1.402       .  A
C598        H609   1.084       .  S
C599        C600   1.387       .  A
C599        H610   1.084       .  S
C600        C601   1.398       .  A
C600        H611   1.084       .  S
C601        C602   1.424       .  A
C601        C606   1.405       .  A
C602        C603   1.415       .  A
C603        C604   1.401       .  A
C603        H612   1.077       .  S
C604        C605   1.403       .  A
C604        H613   1.083       .  S
C605        C606   1.402       .  A
C606        H614   1.084       .  S
C615        C616   1.410       .  A
C615        C620   1.409       .  A
C616        C617   1.408       .  A
C616        H629   1.081       .  S
C617        C618   1.417       .  A
C617        H630   1.079   1_545  S
C618        C624   1.439       .  A
C618        C619   1.420       .  A
C619        C621   1.399       .  A
C619        C620   1.404       .  A
C620        H631   1.082       .  S
C621        C622   1.387       .  A
C621        H632   1.084       .  S
C622        C623   1.398       .  A
C622        H633   1.084       .  S
C623        C624   1.423       .  A
C623        C628   1.406       .  A
C624        C625   1.417   1_545  A
C625        C626   1.406       .  A
C625        H634   1.079       .  S
C626        C627   1.406       .  A
C626        H635   1.083       .  S
C627        C628   1.402   1_565  A
C628        H636   1.084       .  S
C637        C638   1.401       .  A
C637        C642   1.401       .  A
C638        C639   1.399       .  A
C638        H651   1.083       .  S
C639        C640   1.416       .  A
C639        H652   1.078       .  S
C640        C646   1.433       .  A
C640        C641   1.423       .  A
C641        C643   1.399       .  A
C641        C642   1.407       .  A
C642        H653   1.085       .  S
C643        C644   1.391       .  A
C643        H654   1.084       .  S
C644        C645   1.400       .  A
C644        H655   1.084       .  S
C645        C646   1.423       .  A
C645        C650   1.408       .  A
C646        C647   1.414       .  A
C647        C648   1.398       .  A
C647        H656   1.078       .  S
C648        C649   1.404       .  A
C648        H657   1.083       .  S
C649        C650   1.404       .  A
C650        H658   1.084       .  S
C659        C660   1.403       .  A
C659        C664   1.405       .  A
C660        C661   1.404       .  A
C660        H673   1.083       .  S
C661        C662   1.417       .  A
C661        H674   1.078       .  S
C662        C668   1.436       .  A
C662        C663   1.421       .  A
C663        C665   1.400       .  A
C663        C664   1.405       .  A
C664        H675   1.084       .  S
C665        C666   1.389       .  A
C665        H676   1.084       .  S
C666        C667   1.399       .  A
C666        H677   1.084       .  S
C667        C668   1.424       .  A
C667        C672   1.406       .  A
C668        C669   1.416       .  A
C669        C670   1.401       .  A
C669        H678   1.078       .  S
C670        C671   1.401       .  A
C670        H679   1.083       .  S
C671        C672   1.401       .  A
C672        H680   1.085       .  S
C681        C682   1.405       .  A
C681        C686   1.404       .  A
C682        C683   1.401       .  A
C682        H695   1.083       .  S
C683        C684   1.414       .  A
C683        H696   1.078       .  S
C684        C690   1.436       .  A
C684        C685   1.424       .  A
C685        C687   1.399       .  A
C685        C686   1.409       .  A
C686        H697   1.084       .  S
C687        C688   1.390       .  A
C687        H698   1.084       .  S
C688        C689   1.399       .  A
C688        H699   1.084       .  S
C689        C690   1.422       .  A
C689        C694   1.405       .  A
C690        C691   1.418       .  A
C691        C692   1.403       .  A
C691        H700   1.078       .  S
C692        C693   1.402       .  A
C692        H701   1.083       .  S
C693        C694   1.402       .  A
C694        H702   1.085       .  S
C703        C704   1.402       .  A
C703        C708   1.404       .  A
C704        C705   1.394       .  A
C704        H717   1.083       .  S
C705        C706   1.414       .  A
C705        H718   1.077       .  S
C706        C712   1.429       .  A
C706        C707   1.422       .  A
C707        C709   1.400       .  A
C707        C708   1.406       .  A
C708        H719   1.084       .  S
C709        C710   1.391       .  A
C709        H720   1.084       .  S
C710        C711   1.400       .  A
C710        H721   1.084       .  S
C711        C712   1.422       .  A
C711        C716   1.407       .  A
C712        C713   1.414       .  A
C713        C714   1.394       .  A
C713        H722   1.077       .  S
C714        C715   1.401       .  A
C714        H723   1.083       .  S
C715        C716   1.402       .  A
C716        H724   1.084       .  S
C725        C726   1.404       .  A
C725        C730   1.402       .  A
C726        C727   1.395       .  A
C726        H739   1.083       .  S
C727        C728   1.412       .  A
C727        H740   1.077       .  S
C728        C734   1.431       .  A
C728        C729   1.424       .  A
C729        C731   1.399       .  A
C729        C730   1.408       .  A
C730        H741   1.084       .  S
C731        C732   1.390       .  A
C731        H742   1.084       .  S
C732        C733   1.400       .  A
C732        H743   1.084       .  S
C733        C734   1.421       .  A
C733        C738   1.404       .  A
C734        C735   1.417       .  A
C735        C736   1.399       .  A
C735        H744   1.077       .  S
C736        C737   1.400       .  A
C736        H745   1.083       .  S
C737        C738   1.403       .  A
C738        H746   1.085       .  S
C747        C748   1.410       .  A
C747        C752   1.409       .  A
C748        C749   1.397       .  A
C748        H761   1.081       .  S
C749        C750   1.410       .  A
C749        H762   1.078       .  S
C750        C756   1.434       .  A
C750        C751   1.422       .  A
C751        C753   1.401       .  A
C751        C752   1.414       .  A
C752        H763   1.082       .  S
C753        C754   1.393   1_545  A
C753        H764   1.084       .  S
C754        C755   1.401       .  A
C754        H765   1.083       .  S
C755        C756   1.421   1_565  A
C755        C760   1.409       .  A
C756        C757   1.417       .  A
C757        C758   1.401       .  A
C757        H766   1.078       .  S
C758        C759   1.401   1_545  A
C758        H767   1.083       .  S
C759        C760   1.406       .  A
C760        H768   1.084       .  S
C769        C770   1.399       .  A
C769        C774   1.401       .  A
C770        C771   1.394       .  A
C770        H783   1.084       .  S
C771        C772   1.415       .  A
C771        H784   1.076       .  S
C772        C778   1.431       .  A
C772        C773   1.423       .  A
C773        C775   1.400       .  A
C773        C774   1.409       .  A
C774        H785   1.084       .  S
C775        C776   1.392       .  A
C775        H786   1.084       .  S
C776        C777   1.400       .  A
C776        H787   1.084       .  S
C777        C778   1.423       .  A
C777        C782   1.409       .  A
C778        C779   1.413       .  A
C779        C780   1.394       .  A
C779        H788   1.076       .  S
C780        C781   1.403       .  A
C780        H789   1.083       .  S
C781        C782   1.404       .  A
C782        H790   1.084       .  S
C791        C792   1.401       .  A
C791        C796   1.403   1_455  A
C792        C793   1.406       .  A
C792        H805   1.083       .  S
C793        C794   1.419   1_455  A
C793        H806   1.079       .  S
C794        C800   1.434       .  A
C794        C795   1.420       .  A
C795        C797   1.399       .  A
C795        C796   1.399       .  A
C796        H807   1.085       .  S
C797        C798   1.386       .  A
C797        H808   1.084       .  S
C798        C799   1.398       .  A
C798        H809   1.084       .  S
C799        C800   1.422       .  A
C799        C804   1.403       .  A
C800        C801   1.414       .  A
C801        C802   1.403       .  A
C801        H810   1.079       .  S
C802        C803   1.407       .  A
C802        H811   1.082       .  S
C803        C804   1.405       .  A
C804        H812   1.083       .  S
C813        C814   1.402       .  A
C813        C818   1.410   1_655  A
C814        C815   1.402       .  A
C814        H827   1.083       .  S
C815        C816   1.417       .  A
C815        H828   1.077       .  S
C816        C822   1.436       .  A
C816        C817   1.420   1_655  A
C817        C819   1.402       .  A
C817        C818   1.412       .  A
C818        H829   1.084       .  S
C819        C820   1.395       .  A
C819        H830   1.084       .  S
C820        C821   1.401   1_455  A
C820        H831   1.084       .  S
C821        C822   1.425       .  A
C821        C826   1.416       .  A
C822        C823   1.413       .  A
C823        C824   1.397       .  A
C823        H832   1.077       .  S
C824        C825   1.404       .  A
C824        H833   1.084       .  S
C825        C826   1.405       .  A
C826        H834   1.084       .  S
C835        C836   1.404       .  A
C835        C840   1.403       .  A
C836        C837   1.399       .  A
C836        H849   1.083       .  S
C837        C838   1.415       .  A
C837        H850   1.078       .  S
C838        C844   1.430       .  A
C838        C839   1.422       .  A
C839        C841   1.400       .  A
C839        C840   1.404       .  A
C840        H851   1.084       .  S
C841        C842   1.389       .  A
C841        H852   1.084       .  S
C842        C843   1.398       .  A
C842        H853   1.084       .  S
C843        C844   1.423       .  A
C843        C848   1.404       .  A
C844        C845   1.415       .  A
C845        C846   1.398   1_455  A
C845        H854   1.079       .  S
C846        C847   1.400       .  A
C846        H855   1.081       .  S
C847        C848   1.399   1_655  A
C848        H856   1.085       .  S
C857        C858   1.400       .  A
C857        C862   1.402       .  A
C858        C859   1.391       .  A
C858        H871   1.083       .  S
C859        C860   1.414       .  A
C859        H872   1.076       .  S
C860        C866   1.426       .  A
C860        C861   1.422       .  A
C861        C863   1.400       .  A
C861        C862   1.405       .  A
C862        H873   1.084       .  S
C863        C864   1.391   1_554  A
C863        H874   1.084       .  S
C864        C865   1.400       .  A
C864        H875   1.084       .  S
C865        C866   1.425   1_556  A
C865        C870   1.408       .  A
C866        C867   1.414       .  A
C867        C868   1.389   1_554  A
C867        H876   1.076       .  S
C868        C869   1.396       .  A
C868        H877   1.084       .  S
C869        C870   1.397       .  A
C870        H878   1.084       .  S
C879        C880   1.403       .  A
C879        C884   1.401       .  A
C880        C881   1.393       .  A
C880        H893   1.084       .  S
C881        C882   1.412       .  A
C881        H894   1.078       .  S
C882        C888   1.430       .  A
C882        C883   1.424       .  A
C883        C885   1.400   1_554  A
C883        C884   1.411       .  A
C884        H895   1.084       .  S
C885        C886   1.392       .  A
C885        H896   1.084       .  S
C886        C887   1.400   1_556  A
C886        H897   1.084       .  S
C887        C888   1.421       .  A
C887        C892   1.406   1_554  A
C888        C889   1.415       .  A
C889        C890   1.396       .  A
C889        H898   1.078       .  S
C890        C891   1.400       .  A
C890        H899   1.084       .  S
C891        C892   1.401   1_554  A
C892        H900   1.085       .  S
C901        C902   1.403       .  A
C901        C906   1.405       .  A
C902        C903   1.406       .  A
C902        H915   1.083       .  S
C903        C904   1.418       .  A
C903        H916   1.078       .  S
C904        C910   1.437       .  A
C904        C905   1.422       .  A
C905        C907   1.399       .  A
C905        C906   1.404       .  A
C906        H917   1.084       .  S
C907        C908   1.388       .  A
C907        H918   1.084       .  S
C908        C909   1.398       .  A
C908        H919   1.084       .  S
C909        C910   1.424       .  A
C909        C914   1.404       .  A
C910        C911   1.418       .  A
C911        C912   1.405       .  A
C911        H920   1.078   1_655  S
C912        C913   1.400       .  A
C912        H921   1.083   1_655  S
C913        C914   1.399       .  A
C914        H922   1.085       .  S
C923        C924   1.403       .  A
C923        C928   1.402       .  A
C924        C925   1.399       .  A
C924        H937   1.083       .  S
C925        C926   1.415       .  A
C925        H938   1.077       .  S
C926        C932   1.432       .  A
C926        C927   1.422       .  A
C927        C929   1.398       .  A
C927        C928   1.402       .  A
C928        H939   1.084       .  S
C929        C930   1.387       .  A
C929        H940   1.084       .  S
C930        C931   1.398       .  A
C930        H941   1.084       .  S
C931        C932   1.422       .  A
C931        C936   1.401       .  A
C932        C933   1.417       .  A
C933        C934   1.400       .  A
C933        H942   1.077       .  S
C934        C935   1.401       .  A
C934        H943   1.083       .  S
C935        C936   1.400       .  A
C936        H944   1.085       .  S
C945        C946   1.402       .  A
C945        C950   1.402       .  A
C946        C947   1.397       .  A
C946        H959   1.083       .  S
C947        C948   1.414       .  A
C947        H960   1.077       .  S
C948        C954   1.430       .  A
C948        C949   1.422       .  A
C949        C951   1.399       .  A
C949        C950   1.404       .  A
C950        H961   1.084       .  S
C951        C952   1.388       .  A
C951        H962   1.084       .  S
C952        C953   1.399       .  A
C952        H963   1.084       .  S
C953        C954   1.422       .  A
C953        C958   1.402       .  A
C954        C955   1.416       .  A
C955        C956   1.397       .  A
C955        H964   1.077       .  S
C956        C957   1.401       .  A
C956        H965   1.083       .  S
C957        C958   1.402       .  A
C958        H966   1.084       .  S
C967        C968   1.402       .  A
C967        C972   1.404       .  A
C968        C969   1.394       .  A
C968        H981   1.083       .  S
C969        C970   1.413       .  A
C969        H982   1.077       .  S
C970        C976   1.430       .  A
C970        C971   1.422       .  A
C971        C973   1.400       .  A
C971        C972   1.408       .  A
C972        H983   1.084       .  S
C973        C974   1.391       .  A
C973        H984   1.084       .  S
C974        C975   1.400       .  A
C974        H985   1.084       .  S
C975        C976   1.422       .  A
C975        C980   1.407       .  A
C976        C977   1.414       .  A
C977        C978   1.395       .  A
C977        H986   1.077       .  S
C978        C979   1.401       .  A
C978        H987   1.083       .  S
C979        C980   1.405       .  A
C980        H988   1.084       .  S
C989        C990   1.405       .  A
C989        C994   1.406       .  A
C990        C991   1.407       .  A
C990       H1003   1.082       .  S
C991        C992   1.418       .  A
C991       H1004   1.078   1_455  S
C992        C998   1.437       .  A
C992        C993   1.420       .  A
C993        C995   1.399       .  A
C993        C994   1.402       .  A
C994       H1005   1.084       .  S
C995        C996   1.387       .  A
C995       H1006   1.084       .  S
C996        C997   1.398       .  A
C996       H1007   1.084       .  S
C997        C998   1.424       .  A
C997       C1002   1.407       .  A
C998        C999   1.415   1_455  A
C999       C1000   1.403       .  A
C999       H1008   1.078       .  S
C1000      C1001   1.407       .  A
C1000      H1009   1.083       .  S
C1001      C1002   1.402   1_655  A
C1002      H1010   1.084       .  S
C1011      C1012   1.405   1_565  A
C1011      C1016   1.405       .  A
C1012      C1013   1.404   1_545  A
C1012      H1025   1.083       .  S
C1013      C1014   1.416       .  A
C1013      H1026   1.078   1_565  S
C1014      C1020   1.439       .  A
C1014      C1015   1.423       .  A
C1015      C1017   1.399       .  A
C1015      C1016   1.409       .  A
C1016      H1027   1.084       .  S
C1017      C1018   1.390       .  A
C1017      H1028   1.084       .  S
C1018      C1019   1.400       .  A
C1018      H1029   1.084       .  S
C1019      C1020   1.421       .  A
C1019      C1024   1.409       .  A
C1020      C1021   1.416       .  A
C1021      C1022   1.405       .  A
C1021      H1030   1.078       .  S
C1022      C1023   1.408       .  A
C1022      H1031   1.082       .  S
C1023      C1024   1.409       .  A
C1024      H1032   1.083       .  S
C1033      C1034   1.403       .  A
C1033      C1038   1.404       .  A
C1034      C1035   1.394       .  A
C1034      H1047   1.083       .  S
C1035      C1036   1.413       .  A
C1035      H1048   1.077       .  S
C1036      C1042   1.431       .  A
C1036      C1037   1.423       .  A
C1037      C1039   1.400       .  A
C1037      C1038   1.408       .  A
C1038      H1049   1.084       .  S
C1039      C1040   1.391       .  A
C1039      H1050   1.084       .  S
C1040      C1041   1.400       .  A
C1040      H1051   1.084       .  S
C1041      C1042   1.422       .  A
C1041      C1046   1.406       .  A
C1042      C1043   1.415       .  A
C1043      C1044   1.396       .  A
C1043      H1052   1.076       .  S
C1044      C1045   1.401       .  A
C1044      H1053   1.083       .  S
C1045      C1046   1.403       .  A
C1046      H1054   1.084       .  S
C1055      C1056   1.402       .  A
C1055      C1060   1.404       .  A
C1056      C1057   1.398       .  A
C1056      H1069   1.083       .  S
C1057      C1058   1.416       .  A
C1057      H1070   1.076       .  S
C1058      C1064   1.432       .  A
C1058      C1059   1.422       .  A
C1059      C1061   1.400       .  A
C1059      C1060   1.406       .  A
C1060      H1071   1.084       .  S
C1061      C1062   1.390       .  A
C1061      H1072   1.084       .  S
C1062      C1063   1.399       .  A
C1062      H1073   1.084       .  S
C1063      C1064   1.423       .  A
C1063      C1068   1.407       .  A
C1064      C1065   1.415       .  A
C1065      C1066   1.397       .  A
C1065      H1074   1.076       .  S
C1066      C1067   1.402       .  A
C1066      H1075   1.083       .  S
C1067      C1068   1.402       .  A
C1068      H1076   1.084       .  S
C1077      C1078   1.402       .  A
C1077      C1082   1.406       .  A
C1078      C1079   1.393       .  A
C1078      H1091   1.083       .  S
C1079      C1080   1.413       .  A
C1079      H1092   1.078       .  S
C1080      C1086   1.431       .  A
C1080      C1081   1.422       .  A
C1081      C1083   1.401       .  A
C1081      C1082   1.411       .  A
C1082      H1093   1.084       .  S
C1083      C1084   1.394       .  A
C1083      H1094   1.084       .  S
C1084      C1085   1.401       .  A
C1084      H1095   1.084       .  S
C1085      C1086   1.423       .  A
C1085      C1090   1.411       .  A
C1086      C1087   1.414       .  A
C1087      C1088   1.393       .  A
C1087      H1096   1.078       .  S
C1088      C1089   1.399       .  A
C1088      H1097   1.084       .  S
C1089      C1090   1.404       .  A
C1090      H1098   1.085       .  S
C1099      C1100   1.401       .  A
C1099      C1104   1.402       .  A
C1100      C1101   1.405       .  A
C1100      H1113   1.083       .  S
C1101      C1102   1.418       .  A
C1101      H1114   1.078       .  S
C1102      C1108   1.435       .  A
C1102      C1103   1.423       .  A
C1103      C1105   1.399       .  A
C1103      C1104   1.404       .  A
C1104      H1115   1.085       .  S
C1105      C1106   1.388       .  A
C1105      H1116   1.084       .  S
C1106      C1107   1.398       .  A
C1106      H1117   1.084       .  S
C1107      C1108   1.423       .  A
C1107      C1112   1.403       .  A
C1108      C1109   1.418       .  A
C1109      C1110   1.405       .  A
C1109      H1118   1.078       .  S
C1110      C1111   1.400       .  A
C1110      H1119   1.083   1_554  S
C1111      C1112   1.400       .  A
C1112      H1120   1.086       .  S
C1121      C1122   1.400   1_556  A
C1121      C1126   1.399       .  A
C1122      C1123   1.402   1_554  A
C1122      H1135   1.084       .  S
C1123      C1124   1.416       .  A
C1123      H1136   1.078   1_556  S
C1124      C1130   1.435       .  A
C1124      C1125   1.424       .  A
C1125      C1127   1.398       .  A
C1125      C1126   1.406       .  A
C1126      H1137   1.085       .  S
C1127      C1128   1.389       .  A
C1127      H1138   1.084       .  S
C1128      C1129   1.400       .  A
C1128      H1139   1.084       .  S
C1129      C1130   1.421       .  A
C1129      C1134   1.404       .  A
C1130      C1131   1.418       .  A
C1131      C1132   1.405       .  A
C1131      H1140   1.078   1_556  S
C1132      C1133   1.402       .  A
C1132      H1141   1.083       .  S
C1133      C1134   1.405       .  A
C1134      H1142   1.085       .  S
C1143      C1144   1.408       .  A
C1143      C1148   1.404       .  A
C1144      C1145   1.397       .  A
C1144      H1157   1.083       .  S
C1145      C1146   1.410       .  A
C1145      H1158   1.078       .  S
C1146      C1152   1.435   1_565  A
C1146      C1147   1.424   1_565  A
C1147      C1149   1.399       .  A
C1147      C1148   1.414   1_545  A
C1148      H1159   1.084   1_565  S
C1149      C1150   1.393       .  A
C1149      H1160   1.084       .  S
C1150      C1151   1.402       .  A
C1150      H1161   1.084       .  S
C1151      C1152   1.417       .  A
C1151      C1156   1.407       .  A
C1152      C1153   1.416   1_545  A
C1153      C1154   1.404   1_565  A
C1153      H1162   1.076       .  S
C1154      C1155   1.407       .  A
C1154      H1163   1.081       .  S
C1155      C1156   1.414       .  A
C1156      H1164   1.081       .  S
C1165      C1166   1.406       .  A
C1165      C1170   1.404       .  A
C1166      C1167   1.396       .  A
C1166      H1179   1.082       .  S
C1167      C1168   1.411       .  A
C1167      H1180   1.079       .  S
C1168      C1174   1.431       .  A
C1168      C1169   1.422       .  A
C1169      C1171   1.398       .  A
C1169      C1170   1.407       .  A
C1170      H1181   1.083       .  S
C1171      C1172   1.390   1_565  A
C1171      H1182   1.083       .  S
C1172      C1173   1.400       .  A
C1172      H1183   1.084       .  S
C1173      C1174   1.421   1_545  A
C1173      C1178   1.403       .  A
C1174      C1175   1.417       .  A
C1175      C1176   1.400       .  A
C1175      H1184   1.078       .  S
C1176      C1177   1.399   1_565  A
C1176      H1185   1.083       .  S
C1177      C1178   1.405       .  A
C1178      H1186   1.085       .  S
C1187      C1188   1.403   1_554  A
C1187      C1192   1.404       .  A
C1188      C1189   1.406       .  A
C1188      H1201   1.083       .  S
C1189      C1190   1.418   1_556  A
C1189      H1202   1.078       .  S
C1190      C1196   1.437       .  A
C1190      C1191   1.422       .  A
C1191      C1193   1.399       .  A
C1191      C1192   1.404       .  A
C1192      H1203   1.085       .  S
C1193      C1194   1.387       .  A
C1193      H1204   1.084       .  S
C1194      C1195   1.399       .  A
C1194      H1205   1.084       .  S
C1195      C1196   1.422       .  A
C1195      C1200   1.404       .  A
C1196      C1197   1.418       .  A
C1197      C1198   1.406       .  A
C1197      H1206   1.078   1_554  S
C1198      C1199   1.404       .  A
C1198      H1207   1.083       .  S
C1199      C1200   1.404       .  A
C1200      H1208   1.084       .  S
C1209      C1210   1.404       .  A
C1209      C1214   1.402       .  A
C1210      C1211   1.402       .  A
C1210      H1223   1.083       .  S
C1211      C1212   1.416       .  A
C1211      H1224   1.077   1_556  S
C1212      C1218   1.435       .  A
C1212      C1213   1.423       .  A
C1213      C1215   1.398       .  A
C1213      C1214   1.403       .  A
C1214      H1225   1.084       .  S
C1215      C1216   1.387       .  A
C1215      H1226   1.084       .  S
C1216      C1217   1.398       .  A
C1216      H1227   1.084       .  S
C1217      C1218   1.422       .  A
C1217      C1222   1.402       .  A
C1218      C1219   1.418   1_556  A
C1219      C1220   1.404       .  A
C1219      H1228   1.077       .  S
C1220      C1221   1.402       .  A
C1220      H1229   1.083       .  S
C1221      C1222   1.402   1_554  A
C1222      H1230   1.085       .  S
C1231      C1232   1.400       .  A
C1231      C1236   1.402       .  A
C1232      C1233   1.412       .  A
C1232      H1245   1.083       .  S
C1233      C1234   1.424       .  A
C1233      H1246   1.078       .  S
C1234      C1240   1.438       .  A
C1234      C1235   1.420       .  A
C1235      C1237   1.399       .  A
C1235      C1236   1.397       .  A
C1236      H1247   1.085       .  S
C1237      C1238   1.386       .  A
C1237      H1248   1.084       .  S
C1238      C1239   1.397       .  A
C1238      H1249   1.084       .  S
C1239      C1240   1.426       .  A
C1239      C1244   1.407       .  A
C1240      C1241   1.413       .  A
C1241      C1242   1.404       .  A
C1241      H1250   1.078       .  S
C1242      C1243   1.410       .  A
C1242      H1251   1.082       .  S
C1243      C1244   1.402       .  A
C1244      H1252   1.083       .  S
C1253      C1254   1.404       .  A
C1253      C1258   1.406       .  A
C1254      C1255   1.394       .  A
C1254      H1267   1.083       .  S
C1255      C1256   1.411       .  A
C1255      H1268   1.078       .  S
C1256      C1262   1.431       .  A
C1256      C1257   1.423       .  A
C1257      C1259   1.401   1_545  A
C1257      C1258   1.414       .  A
C1258      H1269   1.084       .  S
C1259      C1260   1.395       .  A
C1259      H1270   1.084       .  S
C1260      C1261   1.402       .  A
C1260      H1271   1.084       .  S
C1261      C1262   1.420   1_565  A
C1261      C1266   1.411       .  A
C1262      C1263   1.414       .  A
C1263      C1264   1.396       .  A
C1263      H1272   1.078       .  S
C1264      C1265   1.402   1_545  A
C1264      H1273   1.083       .  S
C1265      C1266   1.407       .  A
C1266      H1274   1.084       .  S
C1275      C1276   1.406   1_556  A
C1275      C1280   1.404       .  A
C1276      C1277   1.412   1_554  A
C1276      H1289   1.083       .  S
C1277      C1278   1.419       .  A
C1277      H1290   1.078   1_556  S
C1278      C1284   1.444       .  A
C1278      C1279   1.423       .  A
C1279      C1281   1.399       .  A
C1279      C1280   1.407       .  A
C1280      H1291   1.085       .  S
C1281      C1282   1.388       .  A
C1281      H1292   1.084       .  S
C1282      C1283   1.398       .  A
C1282      H1293   1.084       .  S
C1283      C1284   1.423       .  A
C1283      C1288   1.405       .  A
C1284      C1285   1.421       .  A
C1285      C1286   1.412       .  A
C1285      H1294   1.078   1_556  S
C1286      C1287   1.403       .  A
C1286      H1295   1.083       .  S
C1287      C1288   1.403       .  A
C1288      H1296   1.085       .  S
C1297      C1298   1.401       .  A
C1297      C1302   1.403       .  A
C1298      C1299   1.395       .  A
C1298      H1311   1.083       .  S
C1299      C1300   1.414       .  A
C1299      H1312   1.078       .  S
C1300      C1306   1.431       .  A
C1300      C1301   1.423       .  A
C1301      C1303   1.400       .  A
C1301      C1302   1.408       .  A
C1302      H1313   1.085       .  S
C1303      C1304   1.391       .  A
C1303      H1314   1.084       .  S
C1304      C1305   1.400       .  A
C1304      H1315   1.084       .  S
C1305      C1306   1.421       .  A
C1305      C1310   1.406       .  A
C1306      C1307   1.415       .  A
C1307      C1308   1.397       .  A
C1307      H1316   1.078       .  S
C1308      C1309   1.401       .  A
C1308      H1317   1.083       .  S
C1309      C1310   1.405       .  A
C1310      H1318   1.084       .  S
C1319      C1320   1.402       .  A
C1319      C1324   1.404       .  A
C1320      C1321   1.398       .  A
C1320      H1333   1.083       .  S
C1321      C1322   1.415       .  A
C1321      H1334   1.077       .  S
C1322      C1328   1.432       .  A
C1322      C1323   1.422       .  A
C1323      C1325   1.399       .  A
C1323      C1324   1.404       .  A
C1324      H1335   1.084       .  S
C1325      C1326   1.389       .  A
C1325      H1336   1.084       .  S
C1326      C1327   1.399       .  A
C1326      H1337   1.084       .  S
C1327      C1328   1.422       .  A
C1327      C1332   1.404       .  A
C1328      C1329   1.416       .  A
C1329      C1330   1.398       .  A
C1329      H1338   1.077       .  S
C1330      C1331   1.401       .  A
C1330      H1339   1.083       .  S
C1331      C1332   1.403       .  A
C1332      H1340   1.084       .  S
C1341      C1342   1.399       .  A
C1341      C1346   1.401       .  A
C1342      C1343   1.392       .  A
C1342      H1355   1.084       .  S
C1343      C1344   1.414       .  A
C1343      H1356   1.077       .  S
C1344      C1350   1.428       .  A
C1344      C1345   1.423       .  A
C1345      C1347   1.400       .  A
C1345      C1346   1.407       .  A
C1346      H1357   1.085       .  S
C1347      C1348   1.392       .  A
C1347      H1358   1.084       .  S
C1348      C1349   1.400       .  A
C1348      H1359   1.084       .  S
C1349      C1350   1.422       .  A
C1349      C1354   1.407       .  A
C1350      C1351   1.414       .  A
C1351      C1352   1.393       .  A
C1351      H1360   1.077       .  S
C1352      C1353   1.401       .  A
C1352      H1361   1.083       .  S
C1353      C1354   1.404       .  A
C1354      H1362   1.084       .  S
C1363      C1364   1.400       .  A
C1363      C1368   1.405       .  A
C1364      C1365   1.402       .  A
C1364      H1377   1.083       .  S
C1365      C1366   1.418       .  A
C1365      H1378   1.077       .  S
C1366      C1372   1.437       .  A
C1366      C1367   1.422       .  A
C1367      C1369   1.401       .  A
C1367      C1368   1.411       .  A
C1368      H1379   1.084       .  S
C1369      C1370   1.394   1_556  A
C1369      H1380   1.084       .  S
C1370      C1371   1.401   1_554  A
C1370      H1381   1.084       .  S
C1371      C1372   1.425       .  A
C1371      C1376   1.416   1_556  A
C1372      C1373   1.414       .  A
C1373      C1374   1.399       .  A
C1373      H1382   1.077       .  S
C1374      C1375   1.403       .  A
C1374      H1383   1.084       .  S
C1375      C1376   1.404   1_556  A
C1376      H1384   1.084       .  S
C1385      C1386   1.404       .  A
C1385      C1390   1.410       .  A
C1386      C1387   1.395       .  A
C1386      H1399   1.082       .  S
C1387      C1388   1.413       .  A
C1387      H1400   1.077       .  S
C1388      C1394   1.430       .  A
C1388      C1389   1.420       .  A
C1389      C1391   1.403       .  A
C1389      C1390   1.411       .  A
C1390      H1401   1.083       .  S
C1391      C1392   1.396   1_655  A
C1391      H1402   1.084   1_655  S
C1392      C1393   1.401   1_455  A
C1392      H1403   1.084       .  S
C1393      C1394   1.423       .  A
C1393      C1398   1.414   1_655  A
C1394      C1395   1.411       .  A
C1395      C1396   1.392       .  A
C1395      H1404   1.078       .  S
C1396      C1397   1.402       .  A
C1396      H1405   1.084       .  S
C1397      C1398   1.405   1_655  A
C1398      H1406   1.084       .  S
C1407      C1408   1.403       .  A
C1407      C1412   1.403       .  A
C1408      C1409   1.396       .  A
C1408      H1421   1.083       .  S
C1409      C1410   1.413       .  A
C1409      H1422   1.078       .  S
C1410      C1416   1.432       .  A
C1410      C1411   1.423       .  A
C1411      C1413   1.399       .  A
C1411      C1412   1.407       .  A
C1412      H1423   1.084       .  S
C1413      C1414   1.390       .  A
C1413      H1424   1.084       .  S
C1414      C1415   1.400       .  A
C1414      H1425   1.084       .  S
C1415      C1416   1.422       .  A
C1415      C1420   1.405       .  A
C1416      C1417   1.417       .  A
C1417      C1418   1.398       .  A
C1417      H1426   1.078       .  S
C1418      C1419   1.399       .  A
C1418      H1427   1.083       .  S
C1419      C1420   1.402       .  A
C1420      H1428   1.085       .  S
C1429      C1430   1.403       .  A
C1429      C1434   1.404       .  A
C1430      C1431   1.394       .  A
C1430      H1443   1.083       .  S
C1431      C1432   1.413       .  A
C1431      H1444   1.079       .  S
C1432      C1438   1.432       .  A
C1432      C1433   1.423       .  A
C1433      C1435   1.400       .  A
C1433      C1434   1.409       .  A
C1434      H1445   1.085       .  S
C1435      C1436   1.392       .  A
C1435      H1446   1.084       .  S
C1436      C1437   1.401       .  A
C1436      H1447   1.084       .  S
C1437      C1438   1.421       .  A
C1437      C1442   1.407       .  A
C1438      C1439   1.415       .  A
C1439      C1440   1.396       .  A
C1439      H1448   1.079       .  S
C1440      C1441   1.401       .  A
C1440      H1449   1.083       .  S
C1441      C1442   1.405       .  A
C1442      H1450   1.085       .  S
C1451      C1452   1.409       .  A
C1451      C1456   1.408       .  A
C1452      C1453   1.397       .  A
C1452      H1465   1.082       .  S
C1453      C1454   1.409       .  A
C1453      H1466   1.078       .  S
C1454      C1460   1.434       .  A
C1454      C1455   1.423       .  A
C1455      C1457   1.400       .  A
C1455      C1456   1.414       .  A
C1456      H1467   1.083       .  S
C1457      C1458   1.394       .  A
C1457      H1468   1.083       .  S
C1458      C1459   1.401       .  A
C1458      H1469   1.083   1_565  S
C1459      C1460   1.420       .  A
C1459      C1464   1.408   1_565  A
C1460      C1461   1.418       .  A
C1461      C1462   1.402       .  A
C1461      H1470   1.078       .  S
C1462      C1463   1.401       .  A
C1462      H1471   1.083       .  S
C1463      C1464   1.407   1_565  A
C1464      H1472   1.085       .  S
C1473      C1474   1.403       .  A
C1473      C1478   1.402       .  A
C1474      C1475   1.400       .  A
C1474      H1487   1.083       .  S
C1475      C1476   1.416       .  A
C1475      H1488   1.077       .  S
C1476      C1482   1.434       .  A
C1476      C1477   1.422       .  A
C1477      C1479   1.399       .  A
C1477      C1478   1.405       .  A
C1478      H1489   1.084       .  S
C1479      C1480   1.389       .  A
C1479      H1490   1.084       .  S
C1480      C1481   1.399       .  A
C1480      H1491   1.084       .  S
C1481      C1482   1.423       .  A
C1481      C1486   1.406       .  A
C1482      C1483   1.415       .  A
C1483      C1484   1.400       .  A
C1483      H1492   1.077       .  S
C1484      C1485   1.404       .  A
C1484      H1493   1.083       .  S
C1485      C1486   1.403       .  A
C1486      H1494   1.084       .  S
C1495      C1496   1.404       .  A
C1495      C1500   1.406       .  A
C1496      C1497   1.391       .  A
C1496      H1509   1.084       .  S
C1497      C1498   1.410       .  A
C1497      H1510   1.078       .  S
C1498      C1504   1.428       .  A
C1498      C1499   1.422       .  A
C1499      C1501   1.403       .  A
C1499      C1500   1.415       .  A
C1500      H1511   1.084       .  S
C1501      C1502   1.398       .  A
C1501      H1512   1.084       .  S
C1502      C1503   1.403       .  A
C1502      H1513   1.083       .  S
C1503      C1504   1.419       .  A
C1503      C1508   1.413       .  A
C1504      C1505   1.412       .  A
C1505      C1506   1.394       .  A
C1505      H1514   1.078       .  S
C1506      C1507   1.403       .  A
C1506      H1515   1.083       .  S
C1507      C1508   1.410       .  A
C1508      H1516   1.084       .  S
C1517      C1518   1.393       .  A
C1517      C1522   1.402       .  A
C1518      C1519   1.393       .  A
C1518      H1531   1.083       .  S
C1519      C1520   1.416       .  A
C1519      H1532   1.077       .  S
C1520      C1526   1.426       .  A
C1520      C1521   1.421       .  A
C1521      C1523   1.400       .  A
C1521      C1522   1.405       .  A
C1522      H1533   1.085   1_556  S
C1523      C1524   1.393       .  A
C1523      H1534   1.082   1_556  S
C1524      C1525   1.402       .  A
C1524      H1535   1.084   1_556  S
C1525      C1526   1.422       .  A
C1525      C1530   1.410       .  A
C1526      C1527   1.410       .  A
C1527      C1528   1.391       .  A
C1527      H1536   1.078       .  S
C1528      C1529   1.404       .  A
C1528      H1537   1.082       .  S
C1529      C1530   1.408       .  A
C1530      H1538   1.083       .  S
C1539      C1540   1.403       .  A
C1539      C1544   1.402       .  A
C1540      C1541   1.413       .  A
C1540      H1553   1.083       .  S
C1541      C1542   1.421       .  A
C1541      H1554   1.079       .  S
C1542      C1548   1.439       .  A
C1542      C1543   1.421       .  A
C1543      C1545   1.398       .  A
C1543      C1544   1.397       .  A
C1544      H1555   1.085       .  S
C1545      C1546   1.383       .  A
C1545      H1556   1.084       .  S
C1546      C1547   1.397       .  A
C1546      H1557   1.084       .  S
C1547      C1548   1.423       .  A
C1547      C1552   1.400       .  A
C1548      C1549   1.419       .  A
C1549      C1550   1.410       .  A
C1549      H1558   1.079       .  S
C1550      C1551   1.405       .  A
C1550      H1559   1.083       .  S
C1551      C1552   1.401       .  A
C1552      H1560   1.085       .  S
C1561      C1562   1.404       .  A
C1561      C1566   1.401       .  A
C1562      C1563   1.397       .  A
C1562      H1575   1.084       .  S
C1563      C1564   1.413       .  A
C1563      H1576   1.077       .  S
C1564      C1570   1.433       .  A
C1564      C1565   1.424       .  A
C1565      C1567   1.398       .  A
C1565      C1566   1.406       .  A
C1566      H1577   1.085       .  S
C1567      C1568   1.388       .  A
C1567      H1578   1.084       .  S
C1568      C1569   1.400       .  A
C1568      H1579   1.084       .  S
C1569      C1570   1.420       .  A
C1569      C1574   1.403       .  A
C1570      C1571   1.418       .  A
C1571      C1572   1.403       .  A
C1571      H1580   1.077       .  S
C1572      C1573   1.403       .  A
C1572      H1581   1.083       .  S
C1573      C1574   1.407       .  A
C1574      H1582   1.084       .  S
C1583      C1584   1.406       .  A
C1583      C1588   1.405       .  A
C1584      C1585   1.402       .  A
C1584      H1597   1.083       .  S
C1585      C1586   1.414       .  A
C1585      H1598   1.078       .  S
C1586      C1592   1.438       .  A
C1586      C1587   1.424       .  A
C1587      C1589   1.400       .  A
C1587      C1588   1.412       .  A
C1588      H1599   1.084       .  S
C1589      C1590   1.391       .  A
C1589      H1600   1.084       .  S
C1590      C1591   1.400       .  A
C1590      H1601   1.084       .  S
C1591      C1592   1.421       .  A
C1591      C1596   1.407       .  A
C1592      C1593   1.418       .  A
C1593      C1594   1.405       .  A
C1593      H1602   1.078       .  S
C1594      C1595   1.403       .  A
C1594      H1603   1.083       .  S
C1595      C1596   1.407       .  A
C1596      H1604   1.084       .  S
C1605      C1606   1.406       .  A
C1605      C1610   1.402       .  A
C1606      C1607   1.410       .  A
C1606      H1619   1.083       .  S
C1607      C1608   1.418       .  A
C1607      H1620   1.079       .  S
C1608      C1614   1.442       .  A
C1608      C1609   1.424       .  A
C1609      C1611   1.397       .  A
C1609      C1610   1.404       .  A
C1610      H1621   1.084       .  S
C1611      C1612   1.385       .  A
C1611      H1622   1.084       .  S
C1612      C1613   1.399       .  A
C1612      H1623   1.084       .  S
C1613      C1614   1.421       .  A
C1613      C1618   1.401       .  A
C1614      C1615   1.422       .  A
C1615      C1616   1.414       .  A
C1615      H1624   1.078       .  S
C1616      C1617   1.404       .  A
C1616      H1625   1.083       .  S
C1617      C1618   1.406       .  A
C1618      H1626   1.084       .  S
C1627      C1628   1.400       .  A
C1627      C1632   1.394       .  A
C1628      C1629   1.387       .  A
C1628      H1641   1.083   1_554  S
C1629      C1630   1.410       .  A
C1629      H1642   1.079       .  S
C1630      C1636   1.418       .  A
C1630      C1631   1.422       .  A
C1631      C1633   1.397       .  A
C1631      C1632   1.399       .  A
C1632      H1643   1.085       .  S
C1633      C1634   1.388       .  A
C1633      H1644   1.084       .  S
C1634      C1635   1.400       .  A
C1634      H1645   1.084       .  S
C1635      C1636   1.418       .  A
C1635      C1640   1.398       .  A
C1636      C1637   1.412       .  A
C1637      C1638   1.392       .  A
C1637      H1646   1.079       .  S
C1638      C1639   1.403       .  A
C1638      H1647   1.082       .  S
C1639      C1640   1.404       .  A
C1640      H1648   1.083       .  S
C1649      C1650   1.405       .  A
C1649      C1654   1.402       .  A
C1650      C1651   1.404       .  A
C1650      H1663   1.083       .  S
C1651      C1652   1.416       .  A
C1651      H1664   1.078       .  S
C1652      C1658   1.438       .  A
C1652      C1653   1.423       .  A
C1653      C1655   1.398       .  A
C1653      C1654   1.404       .  A
C1654      H1665   1.085       .  S
C1655      C1656   1.387       .  A
C1655      H1666   1.084       .  S
C1656      C1657   1.400       .  A
C1656      H1667   1.084       .  S
C1657      C1658   1.421       .  A
C1657      C1662   1.405       .  A
C1658      C1659   1.419       .  A
C1659      C1660   1.408       .  A
C1659      H1668   1.078       .  S
C1660      C1661   1.404       .  A
C1660      H1669   1.083       .  S
C1661      C1662   1.406       .  A
C1662      H1670   1.084       .  S
C1671      C1672   1.402       .  A
C1671      C1676   1.402       .  A
C1672      C1673   1.400       .  A
C1672      H1685   1.083       .  S
C1673      C1674   1.416       .  A
C1673      H1686   1.077       .  S
C1674      C1680   1.432       .  A
C1674      C1675   1.422       .  A
C1675      C1677   1.398       .  A
C1675      C1676   1.401       .  A
C1676      H1687   1.084       .  S
C1677      C1678   1.387       .  A
C1677      H1688   1.084       .  S
C1678      C1679   1.399       .  A
C1678      H1689   1.084       .  S
C1679      C1680   1.422       .  A
C1679      C1684   1.402       .  A
C1680      C1681   1.416       .  A
C1681      C1682   1.399       .  A
C1681      H1690   1.077       .  S
C1682      C1683   1.402       .  A
C1682      H1691   1.084       .  S
C1683      C1684   1.402       .  A
C1684      H1692   1.085       .  S
C1693      C1694   1.403       .  A
C1693      C1698   1.401       .  A
C1694      C1695   1.408       .  A
C1694      H1707   1.083       .  S
C1695      C1696   1.419       .  A
C1695      H1708   1.078       .  S
C1696      C1702   1.439       .  A
C1696      C1697   1.423       .  A
C1697      C1699   1.398       .  A
C1697      C1698   1.403       .  A
C1698      H1709   1.085       .  S
C1699      C1700   1.386       .  A
C1699      H1710   1.084       .  S
C1700      C1701   1.398       .  A
C1700      H1711   1.084       .  S
C1701      C1702   1.422       .  A
C1701      C1706   1.403       .  A
C1702      C1703   1.419       .  A
C1703      C1704   1.409       .  A
C1703      H1712   1.078       .  S
C1704      C1705   1.404       .  A
C1704      H1713   1.083       .  S
C1705      C1706   1.403       .  A
C1706      H1714   1.085       .  S
C1715      C1716   1.401       .  A
C1715      C1720   1.407       .  A
C1716      C1717   1.391       .  A
C1716      H1729   1.084       .  S
C1717      C1718   1.411       .  A
C1717      H1730   1.078       .  S
C1718      C1724   1.426       .  A
C1718      C1719   1.420       .  A
C1719      C1721   1.403       .  A
C1719      C1720   1.413       .  A
C1720      H1731   1.084       .  S
C1721      C1722   1.399       .  A
C1721      H1732   1.083       .  S
C1722      C1723   1.403       .  A
C1722      H1733   1.083       .  S
C1723      C1724   1.421       .  A
C1723      C1728   1.416       .  A
C1724      C1725   1.409       .  A
C1725      C1726   1.390       .  A
C1725      H1734   1.078       .  S
C1726      C1727   1.405       .  A
C1726      H1735   1.083       .  S
C1727      C1728   1.409       .  A
C1728      H1736   1.083       .  S
C1737      C1738   1.408       .  A
C1737      C1742   1.409       .  A
C1738      C1739   1.399       .  A
C1738      H1751   1.081       .  S
C1739      C1740   1.411       .  A
C1739      H1752   1.079       .  S
C1740      C1746   1.432       .  A
C1740      C1741   1.421       .  A
C1741      C1743   1.400       .  A
C1741      C1742   1.407       .  A
C1742      H1753   1.082       .  S
C1743      C1744   1.390       .  A
C1743      H1754   1.084       .  S
C1744      C1745   1.401       .  A
C1744      H1755   1.083       .  S
C1745      C1746   1.420       .  A
C1745      C1750   1.403       .  A
C1746      C1747   1.418       .  A
C1747      C1748   1.403       .  A
C1747      H1756   1.078       .  S
C1748      C1749   1.401       .  A
C1748      H1757   1.083       .  S
C1749      C1750   1.407       .  A
C1750      H1758   1.085       .  S
C1759      C1760   1.404       .  A
C1759      C1764   1.403       .  A
C1760      C1761   1.409       .  A
C1760      H1773   1.083       .  S
C1761      C1762   1.419       .  A
C1761      H1774   1.078       .  S
C1762      C1768   1.440       .  A
C1762      C1763   1.423       .  A
C1763      C1765   1.399       .  A
C1763      C1764   1.405       .  A
C1764      H1775   1.085       .  S
C1765      C1766   1.387       .  A
C1765      H1776   1.084       .  S
C1766      C1767   1.398       .  A
C1766      H1777   1.084       .  S
C1767      C1768   1.423       .  A
C1767      C1772   1.406       .  A
C1768      C1769   1.418       .  A
C1769      C1770   1.408       .  A
C1769      H1778   1.078       .  S
C1770      C1771   1.406       .  A
C1770      H1779   1.083       .  S
C1771      C1772   1.403       .  A
C1772      H1780   1.084       .  S
C1781      C1782   1.404       .  A
C1781      C1786   1.407       .  A
C1782      C1783   1.393       .  A
C1782      H1795   1.083       .  S
C1783      C1784   1.411       .  A
C1783      H1796   1.078       .  S
C1784      C1790   1.431       .  A
C1784      C1785   1.422       .  A
C1785      C1787   1.402       .  A
C1785      C1786   1.415       .  A
C1786      H1797   1.084       .  S
C1787      C1788   1.397       .  A
C1787      H1798   1.084       .  S
C1788      C1789   1.402       .  A
C1788      H1799   1.084       .  S
C1789      C1790   1.422       .  A
C1789      C1794   1.414       .  A
C1790      C1791   1.412       .  A
C1791      C1792   1.394       .  A
C1791      H1800   1.078       .  S
C1792      C1793   1.403       .  A
C1792      H1801   1.084       .  S
C1793      C1794   1.406       .  A
C1794      H1802   1.084       .  S
C1803      C1804   1.399       .  A
C1803      C1808   1.400       .  A
C1804      C1805   1.391       .  A
C1804      H1817   1.084       .  S
C1805      C1806   1.412       .  A
C1805      H1818   1.076       .  S
C1806      C1812   1.431       .  A
C1806      C1807   1.425       .  A
C1807      C1809   1.400       .  A
C1807      C1808   1.414       .  A
C1808      H1819   1.084       .  S
C1809      C1810   1.394       .  A
C1809      H1820   1.084       .  S
C1810      C1811   1.403       .  A
C1810      H1821   1.084       .  S
C1811      C1812   1.419       .  A
C1811      C1816   1.410       .  A
C1812      C1813   1.414       .  A
C1813      C1814   1.396       .  A
C1813      H1822   1.076       .  S
C1814      C1815   1.405       .  A
C1814      H1823   1.081       .  S
C1815      C1816   1.412       .  A
C1816      H1824   1.082       .  S
C1825      C1826   1.403       .  A
C1825      C1830   1.398       .  A
C1826      C1827   1.407       .  A
C1826      H1839   1.083       .  S
C1827      C1828   1.418       .  A
C1827      H1840   1.078       .  S
C1828      C1834   1.440       .  A
C1828      C1829   1.425       .  A
C1829      C1831   1.397       .  A
C1829      C1830   1.406       .  A
C1830      H1841   1.085       .  S
C1831      C1832   1.387       .  A
C1831      H1842   1.084       .  S
C1832      C1833   1.399       .  A
C1832      H1843   1.084       .  S
C1833      C1834   1.421       .  A
C1833      C1838   1.403       .  A
C1834      C1835   1.420       .  A
C1835      C1836   1.411       .  A
C1835      H1844   1.078       .  S
C1836      C1837   1.404       .  A
C1836      H1845   1.083       .  S
C1837      C1838   1.405       .  A
C1838      H1846   1.084       .  S
C1847      C1848   1.400       .  A
C1847      C1852   1.408       .  A
C1848      C1849   1.403       .  A
C1848      H1861   1.083       .  S
C1849      C1850   1.418       .  A
C1849      H1862   1.078       .  S
C1850      C1856   1.435       .  A
C1850      C1851   1.420       .  A
C1851      C1853   1.402       .  A
C1851      C1852   1.408       .  A
C1852      H1863   1.084   1_545  S
C1853      C1854   1.393       .  A
C1853      H1864   1.082   1_545  S
C1854      C1855   1.400       .  A
C1854      H1865   1.084   1_545  S
C1855      C1856   1.424       .  A
C1855      C1860   1.413       .  A
C1856      C1857   1.411       .  A
C1857      C1858   1.397       .  A
C1857      H1866   1.078       .  S
C1858      C1859   1.408       .  A
C1858      H1867   1.082       .  S
C1859      C1860   1.407       .  A
C1860      H1868   1.083       .  S
C1869      C1870   1.404       .  A
C1869      C1874   1.404       .  A
C1870      C1871   1.404       .  A
C1870      H1883   1.083       .  S
C1871      C1872   1.416       .  A
C1871      H1884   1.078       .  S
C1872      C1878   1.439       .  A
C1872      C1873   1.423       .  A
C1873      C1875   1.399       .  A
C1873      C1874   1.408       .  A
C1874      H1885   1.084       .  S
C1875      C1876   1.389       .  A
C1875      H1886   1.084       .  S
C1876      C1877   1.400       .  A
C1876      H1887   1.084       .  S
C1877      C1878   1.421       .  A
C1877      C1882   1.406       .  A
C1878      C1879   1.418       .  A
C1879      C1880   1.407       .  A
C1879      H1888   1.078       .  S
C1880      C1881   1.404       .  A
C1880      H1889   1.083       .  S
C1881      C1882   1.407       .  A
C1882      H1890   1.084       .  S
C1891      C1892   1.402       .  A
C1891      C1896   1.403       .  A
C1892      C1893   1.407       .  A
C1892      H1905   1.083       .  S
C1893      C1894   1.419       .  A
C1893      H1906   1.078       .  S
C1894      C1900   1.438       .  A
C1894      C1895   1.422       .  A
C1895      C1897   1.399       .  A
C1895      C1896   1.404       .  A
C1896      H1907   1.085       .  S
C1897      C1898   1.387       .  A
C1897      H1908   1.084       .  S
C1898      C1899   1.398       .  A
C1898      H1909   1.084       .  S
C1899      C1900   1.424       .  A
C1899      C1904   1.405       .  A
C1900      C1901   1.418       .  A
C1901      C1902   1.406       .  A
C1901      H1910   1.078       .  S
C1902      C1903   1.402       .  A
C1902      H1911   1.083       .  S
C1903      C1904   1.399       .  A
C1904      H1912   1.085       .  S
C1913      C1914   1.401       .  A
C1913      C1918   1.403       .  A
C1914      C1915   1.411       .  A
C1914      H1927   1.083       .  S
C1915      C1916   1.423       .  A
C1915      H1928   1.078       .  S
C1916      C1922   1.438       .  A
C1916      C1917   1.420       .  A
C1917      C1919   1.399       .  A
C1917      C1918   1.398       .  A
C1918      H1929   1.085       .  S
C1919      C1920   1.386       .  A
C1919      H1930   1.084       .  S
C1920      C1921   1.397       .  A
C1920      H1931   1.084       .  S
C1921      C1922   1.425       .  A
C1921      C1926   1.405       .  A
C1922      C1923   1.414       .  A
C1923      C1924   1.404       .  A
C1923      H1932   1.078       .  S
C1924      C1925   1.407       .  A
C1924      H1933   1.083       .  S
C1925      C1926   1.400       .  A
C1926      H1934   1.084       .  S
C1935      C1936   1.404       .  A
C1935      C1940   1.408       .  A
C1936      C1937   1.401       .  A
C1936      H1949   1.083       .  S
C1937      C1938   1.416       .  A
C1937      H1950   1.078       .  S
C1938      C1944   1.436       .  A
C1938      C1939   1.421       .  A
C1939      C1941   1.401       .  A
C1939      C1940   1.412       .  A
C1940      H1951   1.084       .  S
C1941      C1942   1.395       .  A
C1941      H1952   1.084       .  S
C1942      C1943   1.401       .  A
C1942      H1953   1.084       .  S
C1943      C1944   1.423       .  A
C1943      C1948   1.415       .  A
C1944      C1945   1.412       .  A
C1945      C1946   1.398       .  A
C1945      H1954   1.078       .  S
C1946      C1947   1.408       .  A
C1946      H1955   1.082       .  S
C1947      C1948   1.407       .  A
C1948      H1956   1.083       .  S
C1957      C1958   1.402       .  A
C1957      C1962   1.408       .  A
C1958      C1959   1.394       .  A
C1958      H1971   1.083       .  S
C1959      C1960   1.412       .  A
C1959      H1972   1.078       .  S
C1960      C1966   1.428       .  A
C1960      C1961   1.420       .  A
C1961      C1963   1.402       .  A
C1961      C1962   1.412       .  A
C1962      H1973   1.084       .  S
C1963      C1964   1.397       .  A
C1963      H1974   1.084       .  S
C1964      C1965   1.402       .  A
C1964      H1975   1.084       .  S
C1965      C1966   1.421       .  A
C1965      C1970   1.413       .  A
C1966      C1967   1.411       .  A
C1967      C1968   1.392       .  A
C1967      H1976   1.078       .  S
C1968      C1969   1.404       .  A
C1968      H1977   1.083       .  S
C1969      C1970   1.408       .  A
C1970      H1978   1.084       .  S
C1979      C1980   1.409       .  A
C1979      C1984   1.412       .  A
C1980      C1981   1.392       .  A
C1980      H1993   1.081       .  S
C1981      C1982   1.409       .  A
C1981      H1994   1.078       .  S
C1982      C1988   1.430       .  A
C1982      C1983   1.421       .  A
C1983      C1985   1.403       .  A
C1983      C1984   1.416       .  A
C1984      H1995   1.082       .  S
C1985      C1986   1.397       .  A
C1985      H1996   1.084       .  S
C1986      C1987   1.402       .  A
C1986      H1997   1.084       .  S
C1987      C1988   1.421       .  A
C1987      C1992   1.412       .  A
C1988      C1989   1.414       .  A
C1989      C1990   1.394       .  A
C1989      H1998   1.078       .  S
C1990      C1991   1.400       .  A
C1990      H1999   1.084       .  S
C1991      C1992   1.406       .  A
C1992      H2000   1.084       .  S
C2001      C2002   1.403       .  A
C2001      C2006   1.402       .  A
C2002      C2003   1.403       .  A
C2002      H2015   1.083       .  S
C2003      C2004   1.417       .  A
C2003      H2016   1.078       .  S
C2004      C2010   1.436       .  A
C2004      C2005   1.423       .  A
C2005      C2007   1.399       .  A
C2005      C2006   1.405       .  A
C2006      H2017   1.085       .  S
C2007      C2008   1.388       .  A
C2007      H2018   1.084       .  S
C2008      C2009   1.399       .  A
C2008      H2019   1.084       .  S
C2009      C2010   1.422       .  A
C2009      C2014   1.405       .  A
C2010      C2011   1.417       .  A
C2011      C2012   1.404       .  A
C2011      H2020   1.078       .  S
C2012      C2013   1.404       .  A
C2012      H2021   1.083       .  S
C2013      C2014   1.405       .  A
C2014      H2022   1.084       .  S
