geometry optimzed in LAMMPS
_audit_creation_date              2020-11-30 
_audit_creation_method            'lammps2cif' 
_symmetry_space_group_name_H-M    'P1' 
_symmetry_Int_Tables_number       1 
_symmetry_cell_setting            triclinic 
loop_ 
_symmetry_equiv_pos_as_xyz 
  x,y,z 
_cell_length_a                    34.931042195875854 
_cell_length_b                    34.842461186879866 
_cell_length_c                    34.93293544115302 
_cell_angle_alpha                 89.51744837610785 
_cell_angle_beta                  89.38330214427302 
_cell_angle_gamma                 89.88623794537331 
loop_ 
_atom_site_label 
_atom_site_type_symbol 
_atom_site_fract_x 
_atom_site_fract_y 
_atom_site_fract_z 
_atom_site_charge 
O1          O  0.27281594  0.44095714  0.99747794    -0.70840
O2          O  0.27637997  0.55581307  0.00051920    -0.71820
O3          O  0.27611860  0.49628610  0.05674845    -0.60440
O4          O  0.27552566  0.50074123  0.94256596    -0.68850
O5          O  0.21190830  0.49986178  0.94273217    -0.68400
O6          O  0.21287742  0.50040721  0.05783589    -0.59650
O7          O  0.21305399  0.55794405  0.99914163    -0.72160
O8          O  0.20933812  0.44305441  0.00105528    -0.70940
Cu9        Cu  0.27740367  0.49838109  0.99944712     1.04560
Cu10       Cu  0.20954219  0.50045482  0.00036649     1.04330
C11         C  0.24038498  0.42393041  0.99840305     0.95360
C12         C  0.24526233  0.57515950  0.99879926     0.94500
C13         C  0.24467568  0.49762862  0.07557788     0.86650
C14         C  0.24395243  0.50054523  0.92466388     0.92920
C15         C  0.24436787  0.49891624  0.75669677    -0.00380
O16         O  0.71342194  0.49600113  0.05797392    -0.70840
O17         O  0.72014370  0.49948516  0.94408831    -0.71820
O18         O  0.71751865  0.44078943  0.99902482    -0.60440
O19         O  0.71847792  0.55487976  0.00283042    -0.68850
O20         O  0.78158401  0.55506600  0.00731290    -0.68400
O21         O  0.78085765  0.43990176  0.00036912    -0.59650
O22         O  0.78342246  0.50035487  0.94658282    -0.72160
O23         O  0.77684946  0.49338492  0.06108425    -0.70940
Cu24       Cu  0.71526536  0.49791622  0.00090739     1.04560
Cu25       Cu  0.78297229  0.49727667  0.00398019     1.04330
C26         C  0.74393100  0.49363915  0.07750050     0.95360
C27         C  0.75261068  0.49946988  0.92711488     0.94500
C28         C  0.74906210  0.42214278  0.99804978     0.86650
C29         C  0.74985056  0.57327972  0.00635541     0.92920
C30         C  0.76211190  0.50055164  0.75881867    -0.00380
O31         O  0.05668327  0.49945194  0.78213292    -0.70840
O32         O  0.94215024  0.50086461  0.77496245    -0.71820
O33         O  0.99831683  0.44253117  0.78377108    -0.60440
O34         O  0.99928023  0.55625327  0.77590450    -0.68850
O35         O  0.00451110  0.55327192  0.71250321    -0.68400
O36         O  0.00326649  0.43780628  0.72047698    -0.59650
O37         O  0.94678561  0.49626815  0.71165689    -0.72160
O38         O  0.06029150  0.49451880  0.71879116    -0.70940
Cu39       Cu  0.99896698  0.49975611  0.78141625     1.04560
Cu40       Cu  0.00382955  0.49525714  0.71358853     1.04330
C41         C  0.07643654  0.49695409  0.75118769     0.95360
C42         C  0.92660126  0.49993484  0.74200652     0.94260
C43         C  0.00101363  0.42221528  0.75370784     0.86650
C44         C  0.00163459  0.57273427  0.74333102     0.92920
O45         O  0.00329456  0.44545416  0.22431598    -0.70840
O46         O  0.00270336  0.55985134  0.22565971    -0.71820
O47         O  0.06078830  0.50385854  0.22933658    -0.60440
O48         O  0.94607512  0.50280555  0.22327471    -0.68850
O49         O  0.94241760  0.50102446  0.28655551    -0.68400
O50         O  0.05669599  0.50125142  0.29279351    -0.59650
O51         O  0.99907540  0.55859699  0.28892769    -0.72160
O52         O  0.00006406  0.44312273  0.28785325    -0.70940
Cu53       Cu  0.00345418  0.50285041  0.22345217     1.04560
Cu54       Cu  0.99946462  0.50084333  0.29126564     1.04330
C55         C  0.00136133  0.42624045  0.25548948     0.95360
C56         C  0.00029765  0.57754058  0.25735097     0.94500
C57         C  0.07673627  0.50368285  0.26217354     0.86650
C58         C  0.92601163  0.50267192  0.25413593     0.92920
C59         C  0.75793842  0.49828230  0.24288991    -0.00380
C60         C  0.24172402  0.50240719  0.24452246    -0.00380
O61         O  0.49722148  0.78578017  0.94486512    -0.70840
O62         O  0.50289655  0.77833552  0.06077223    -0.71820
O63         O  0.55633915  0.78408370  0.00006922    -0.60440
O64         O  0.44323254  0.78460098  0.00558445    -0.68850
O65         O  0.44178002  0.72091331  0.00337927    -0.68400
O66         O  0.55758765  0.72046078  0.99627895    -0.59650
O67         O  0.50218232  0.71474705  0.05629759    -0.72160
O68         O  0.49735979  0.72205708  0.94357185    -0.70940
Cu69       Cu  0.49986786  0.78546973  0.00298627     1.04560
Cu70       Cu  0.49965721  0.71731120  0.99977125     1.04330
C71         C  0.49691960  0.75425639  0.92618535     0.95360
C72         C  0.50370645  0.74489534  0.07642418     0.94500
C73         C  0.57494220  0.75282590  0.99724777     0.86650
C74         C  0.42449368  0.75336899  0.00518042     0.92920
C75         C  0.49932931  0.75680138  0.75796252    -0.00380
O76         O  0.49881516  0.94423954  0.71812579    -0.70840
O77         O  0.50061571  0.05914629  0.71782433    -0.71820
O78         O  0.55752760  0.00009998  0.71814728    -0.60440
O79         O  0.44305846  0.00293377  0.71890702    -0.68850
O80         O  0.44193555  0.00132090  0.78227865    -0.68400
O81         O  0.55667273  0.00176939  0.78172617    -0.59650
O82         O  0.49886062  0.05828509  0.78136385    -0.72160
O83         O  0.49992439  0.94397080  0.78167519    -0.70940
Cu84       Cu  0.50003367  0.00159481  0.71599897     1.04560
Cu85       Cu  0.49932901  0.00125590  0.78396584     1.04330
C86         C  0.49942137  0.92601588  0.74994985     0.95360
C87         C  0.49964343  0.07683033  0.74967863     0.94500
C88         C  0.57513058  0.00072548  0.75002309     0.86650
C89         C  0.42427855  0.00299404  0.75050650     0.92920
O90         O  0.55487572  0.21034451  0.99738501    -0.70840
O91         O  0.44071630  0.21533880  0.00026395    -0.71820
O92         O  0.49745755  0.21809641  0.94070038    -0.60440
O93         O  0.49830848  0.21099025  0.05658117    -0.68850
O94         O  0.49962004  0.27475587  0.05834457    -0.68400
O95         O  0.50057584  0.28159600  0.94523722    -0.59650
O96         O  0.44270684  0.27878068  0.00272803    -0.72160
O97         O  0.55782512  0.27378473  0.00227378    -0.70940
Cu98       Cu  0.49773243  0.21138475  0.99847639     1.04560
Cu99       Cu  0.50029956  0.27939968  0.00207541     1.04330
C100        C  0.57438310  0.24098915  0.00048595     0.95360
C101        C  0.42348205  0.24751021  0.00282965     0.94500
C102        C  0.49906906  0.25144857  0.92503737     0.86650
C103        C  0.49875471  0.24240451  0.07536857     0.92920
C104        C  0.50149017  0.24631504  0.75828118    -0.00380
O105        O  0.44722101  0.00117661  0.27865480    -0.70840
O106        O  0.56174816  0.00196585  0.26992268    -0.71820
O107        O  0.50427073  0.05835984  0.27302294    -0.60440
O108        O  0.50494910  0.94319551  0.27673526    -0.68850
O109        O  0.50209015  0.94295557  0.21351850    -0.68400
O110        O  0.49931724  0.05749754  0.20961129    -0.59650
O111        O  0.55804075  0.00113325  0.20648185    -0.72160
O112        O  0.44388500  0.99862490  0.21521989    -0.70940
Cu113      Cu  0.50471869  0.00113980  0.27685278     1.04560
Cu114      Cu  0.50071780  0.99995505  0.20902438     1.04330
C115        C  0.42760235  0.99983808  0.24803320     0.95360
C116        C  0.57786912  0.00243077  0.23688110     0.94500
C117        C  0.50155064  0.07588886  0.24096826     0.86650
C118        C  0.50344525  0.92470152  0.24536572     0.92920
C119        C  0.50483503  0.75482599  0.24141719    -0.00380
C120        C  0.49878240  0.24429330  0.24228936    -0.00380
O121        O  0.21421963  0.00252634  0.55714902    -0.70840
O122        O  0.22213744  0.00746101  0.44342087    -0.71820
O123        O  0.21628068  0.94716155  0.49866520    -0.60440
O124        O  0.22245264  0.06231432  0.50296431    -0.68850
O125        O  0.28590388  0.05843872  0.50478793    -0.68400
O126        O  0.27983180  0.94440303  0.50058955    -0.59650
O127        O  0.28557261  0.00303870  0.44549610    -0.72160
O128        O  0.27757131  0.99818236  0.56038738    -0.70940
Cu129      Cu  0.21654809  0.00506742  0.50032627     1.04560
Cu130      Cu  0.28446597  0.00103344  0.50297949     1.04330
C131        C  0.24455548  0.99890020  0.57671891     0.95360
C132        C  0.25459042  0.00546010  0.42647701     0.94500
C133        C  0.24745401  0.92780867  0.49912246     0.86650
C134        C  0.25527503  0.07839736  0.50477594     0.92920
C135        C  0.24319695  0.75953815  0.49825913    -0.00380
O136        O  0.77731101  0.94255559  0.49761010    -0.70840
O137        O  0.77467823  0.05737337  0.50073821    -0.71820
O138        O  0.77661522  0.99788672  0.55643196    -0.60440
O139        O  0.77717267  0.00079132  0.44162768    -0.68850
O140        O  0.71394662  0.99722308  0.44221206    -0.68400
O141        O  0.71304775  0.99918156  0.55736154    -0.59650
O142        O  0.71119729  0.05582633  0.49847782    -0.72160
O143        O  0.71401191  0.94062705  0.50013248    -0.70940
Cu144      Cu  0.77862720  0.99980686  0.49911994     1.04560
Cu145      Cu  0.71080967  0.99823516  0.49961344     1.04330
C146        C  0.74618134  0.92331380  0.49773411     0.95360
C147        C  0.74238398  0.07471847  0.50009154     0.94500
C148        C  0.74497161  0.99851205  0.57498538     0.86650
C149        C  0.74571716  0.99782097  0.42362871     0.92920
C150        C  0.75863754  0.75486472  0.50085662    -0.00380
O151        O  0.05869319  0.72408824  0.49743301    -0.70840
O152        O  0.94520085  0.71711567  0.49362889    -0.71820
O153        O  0.00463225  0.72793295  0.43792071    -0.60440
O154        O  0.00006518  0.71654655  0.55256836    -0.68850
O155        O  0.00139918  0.78020142  0.55646882    -0.68400
O156        O  0.99571952  0.79081291  0.44342742    -0.59650
O157        O  0.94079284  0.77982073  0.50356260    -0.72160
O158        O  0.05592582  0.78783107  0.49722696    -0.70940
Cu159      Cu  0.00219573  0.71916553  0.49503356     1.04560
Cu160      Cu  0.99817900  0.78693881  0.50026204     1.04330
C161        C  0.07526624  0.75658609  0.49776768     0.95360
C162        C  0.92496826  0.74692491  0.49978739     0.94500
C163        C  0.00102330  0.76133312  0.42275555     0.86650
C164        C  0.00130877  0.74721629  0.57237975     0.92920
O165        O  0.99797102  0.28772686  0.55605726    -0.70840
O166        O  0.99637852  0.28687472  0.44102159    -0.71820
O167        O  0.93967906  0.28665304  0.49957512    -0.60440
O168        O  0.05507582  0.28877268  0.49680225    -0.68850
O169        O  0.05515367  0.22528189  0.50017282    -0.68400
O170        O  0.94148713  0.22317276  0.49863066    -0.59650
O171        O  0.00017232  0.22321580  0.44247078    -0.72160
O172        O  0.99638914  0.22404790  0.55682401    -0.70940
Cu173      Cu  0.99723106  0.28984381  0.49844965     1.04560
Cu174      Cu  0.99834273  0.22181621  0.49966294     1.04330
C175        C  0.99695266  0.25588790  0.57455270     0.95360
C176        C  0.99844192  0.25473020  0.42374450     0.94500
C177        C  0.92233621  0.25441443  0.49859420     0.86650
C178        C  0.07335749  0.25696271  0.49739065     0.92920
C179        C  0.75260805  0.24286488  0.50065499    -0.00380
C180        C  0.24134240  0.24496811  0.50122499    -0.00380
C181        C  0.99887013  0.25761961  0.25566293    -0.00380
C182        C  0.74251453  0.99662666  0.25472405    -0.00380
C183        C  0.00047877  0.74696989  0.25853403    -0.00380
C184        C  0.25967945  0.00092024  0.25843481    -0.00380
C185        C  0.00107967  0.74088099  0.73977177    -0.00380
C186        C  0.25627861  0.99728926  0.74216289    -0.00380
C187        C  0.00431565  0.25568973  0.74410349    -0.00380
C188        C  0.74346046  0.00154434  0.74367848    -0.00380
C189        C  0.25564257  0.25737043  0.99867428    -0.00380
C190        C  0.25807485  0.74356909  0.00087320    -0.00380
C191        C  0.74035526  0.25380820  0.99917009    -0.00380
C192        C  0.74118966  0.74317320  0.00190636    -0.00380
C193        C  0.81061123  0.18703860  0.13826928     0.05240
C194        C  0.79493552  0.15400215  0.15556125    -0.10910
C195        C  0.81387317  0.13490310  0.18533950     0.02740
C196        C  0.84871456  0.14963174  0.19839515    -0.09440
C197        C  0.86366238  0.18451054  0.18389029     0.05230
C198        C  0.84443995  0.20268406  0.15333709    -0.08860
H199        H  0.76760807  0.14323412  0.14601496     0.10820
H200        H  0.86406665  0.13367575  0.22008440     0.08350
H201        H  0.85563206  0.22908388  0.14126013     0.08200
C202        C  0.19011277  0.81447096  0.13892170     0.05240
C203        C  0.15490020  0.80056051  0.15288057    -0.10910
C204        C  0.13696435  0.81708530  0.18492110     0.02740
C205        C  0.15345328  0.84973167  0.20134225    -0.09440
C206        C  0.18854613  0.86459402  0.18770949     0.05230
C207        C  0.20705832  0.84603532  0.15698949    -0.08860
H208        H  0.14132850  0.77672612  0.13869001     0.10820
H209        H  0.13908201  0.86328945  0.22521019     0.08350
H210        H  0.23498971  0.85578463  0.14740291     0.08200
C211        C  0.14454872  0.18749651  0.80916669     0.05240
C212        C  0.15945863  0.15211570  0.79673245    -0.10910
C213        C  0.19245744  0.13652030  0.81329873     0.02740
C214        C  0.20944249  0.15501290  0.84424835    -0.09440
C215        C  0.19480766  0.19016837  0.85739707     0.05230
C216        C  0.16348975  0.20685582  0.83858273    -0.08860
H217        H  0.14539474  0.13622768  0.77441942     0.10820
H218        H  0.23392616  0.14194369  0.85801968     0.08350
H219        H  0.15373484  0.23504011  0.84718409     0.08200
C220        C  0.80782330  0.80647863  0.14233715     0.05240
C221        C  0.79190849  0.83873300  0.16041252    -0.10910
C222        C  0.80886201  0.85375437  0.19335390     0.02740
C223        C  0.84144207  0.83586276  0.20851831    -0.09440
C224        C  0.85732644  0.80345806  0.19076474     0.05230
C225        C  0.84057492  0.78899417  0.15755221    -0.08860
H226        H  0.76690650  0.85259448  0.14840244     0.10820
H227        H  0.85483023  0.84755976  0.23371949     0.08350
H228        H  0.85314659  0.76433265  0.14344027     0.08200
C229        C  0.13662224  0.80999450  0.81371435     0.05240
C230        C  0.15647620  0.83961708  0.79441915    -0.10910
C231        C  0.18922940  0.85647156  0.81023250     0.02740
C232        C  0.20421529  0.84099711  0.84422365    -0.09440
C233        C  0.18582990  0.81046155  0.86316401     0.05230
C234        C  0.15127919  0.79631915  0.84879274    -0.08860
H235        H  0.14668678  0.84953879  0.76675492     0.10820
H236        H  0.22969494  0.85322694  0.85661160     0.08350
H237        H  0.13628883  0.77425987  0.86492270     0.08200
C238        C  0.81407141  0.13899329  0.81286899     0.05240
C239        C  0.84881087  0.15361550  0.79809116    -0.10910
C240        C  0.86453613  0.18749739  0.81225611     0.02740
C241        C  0.84704141  0.20573180  0.84352114    -0.09440
C242        C  0.81326720  0.19074498  0.85983030     0.05230
C243        C  0.79634871  0.15810022  0.84377145    -0.08860
H244        H  0.86382570  0.13884231  0.77526535     0.10820
H245        H  0.85979606  0.23133391  0.85528970     0.08350
H246        H  0.76950886  0.14764049  0.85558155     0.08200
C247        C  0.86530740  0.81503808  0.81149065     0.05240
C248        C  0.85270984  0.85173741  0.79992475    -0.10910
C249        C  0.82266875  0.87030101  0.81940436     0.02740
C250        C  0.80876086  0.85352548  0.85361853    -0.09440
C251        C  0.81774439  0.81523161  0.86392554     0.05230
C252        C  0.84525855  0.79600378  0.84116948    -0.08860
H253        H  0.86591586  0.86567587  0.77548813     0.10820
H254        H  0.79029282  0.87069263  0.87156837     0.08350
H255        H  0.85137204  0.76598946  0.84587231     0.08200
C256        C  0.18142329  0.18010340  0.13068295     0.05240
C257        C  0.14883231  0.19684533  0.14716800    -0.10910
C258        C  0.13377553  0.18319233  0.18232876     0.02740
C259        C  0.15232822  0.15209284  0.20051027    -0.09440
C260        C  0.18361004  0.13327603  0.18291063     0.05230
C261        C  0.19729006  0.14727528  0.14741659    -0.08860
H262        H  0.13539877  0.22050765  0.13218831     0.10820
H263        H  0.14295933  0.14307363  0.22879354     0.08350
H264        H  0.22095033  0.13329847  0.13288926     0.08200
C265        C  0.30897283  0.30738780  0.64191177     0.05240
C266        C  0.29524493  0.34211990  0.65719371    -0.10910
C267        C  0.31436274  0.36031359  0.68733601     0.02740
C268        C  0.34792951  0.34318878  0.70167312    -0.09440
C269        C  0.36059480  0.30755013  0.68823202     0.05230
C270        C  0.34101867  0.28968559  0.65858002    -0.08860
H271        H  0.26977766  0.35507265  0.64532782     0.10820
H272        H  0.36449172  0.35746718  0.72335279     0.08350
H273        H  0.35131522  0.26236469  0.64798824     0.08200
C274        C  0.63332833  0.31545382  0.31699190     0.05240
C275        C  0.65664835  0.34130989  0.29565269    -0.10910
C276        C  0.68847155  0.35927728  0.31196291     0.02740
C277        C  0.70122643  0.34656990  0.34769378    -0.09440
C278        C  0.68089573  0.31836935  0.36806792     0.05230
C279        C  0.64573478  0.30542824  0.35414648    -0.08860
H280        H  0.65083546  0.34793046  0.26615194     0.10820
H281        H  0.72681568  0.35867380  0.35994693     0.08350
H282        H  0.62902264  0.28677537  0.37272551     0.08200
C283        C  0.31527558  0.64065231  0.30994785     0.05240
C284        C  0.34723881  0.65904288  0.29301761    -0.10910
C285        C  0.36228476  0.69266285  0.30899366     0.02740
C286        C  0.34515772  0.70834036  0.34176364    -0.09440
C287        C  0.31388899  0.69016917  0.35981639     0.05230
C288        C  0.29943093  0.65624670  0.34367239    -0.08860
H289        H  0.36099579  0.64684600  0.26797485     0.10820
H290        H  0.35645953  0.73479287  0.35310087     0.08350
H291        H  0.27550136  0.64188033  0.35734143     0.08200
C292        C  0.30947269  0.31698933  0.36334872     0.05240
C293        C  0.29200438  0.34702770  0.34313816    -0.10910
C294        C  0.30838873  0.36061586  0.30889406     0.02740
C295        C  0.34117375  0.34264379  0.29397786    -0.09440
C296        C  0.36056874  0.31369768  0.31478996     0.05230
C297        C  0.34437602  0.30173406  0.35013288    -0.08860
H298        H  0.26597259  0.36000900  0.35421326     0.10820
H299        H  0.35117513  0.35171239  0.26596555     0.08350
H300        H  0.35862124  0.28086239  0.36805241     0.08200
C301        C  0.32031897  0.63121696  0.67849164     0.05240
C302        C  0.30519341  0.64784533  0.64493260    -0.10910
C303        C  0.32147692  0.68089941  0.62799092     0.02740
C304        C  0.35478731  0.69632595  0.64443551    -0.09440
C305        C  0.37017261  0.68082535  0.67826110     0.05230
C306        C  0.35288762  0.64802416  0.69464353    -0.08860
H307        H  0.28004457  0.63545529  0.63237242     0.10820
H308        H  0.36828489  0.72120593  0.63154186     0.08350
H309        H  0.36442390  0.63607508  0.72074388     0.08200
C310        C  0.64151442  0.31574405  0.69198529     0.05240
C311        C  0.66074213  0.34482337  0.71146674    -0.10910
C312        C  0.69488487  0.36018322  0.69669912     0.02740
C313        C  0.71188984  0.34429967  0.66382411    -0.09440
C314        C  0.69328993  0.31484951  0.64406277     0.05230
C315        C  0.65717373  0.30248294  0.65731698    -0.08860
H316        H  0.64937634  0.35579686  0.73818438     0.10820
H317        H  0.73906654  0.35534248  0.65341021     0.08350
H318        H  0.64118843  0.28217914  0.64052153     0.08200
C319        C  0.69403705  0.63846906  0.31317342     0.05240
C320        C  0.66183098  0.65496310  0.29571201    -0.10910
C321        C  0.64268894  0.68634660  0.31249445     0.02740
C322        C  0.65691357  0.70143123  0.34682111    -0.09440
C323        C  0.69012869  0.68635957  0.36350569     0.05230
C324        C  0.70835310  0.65458765  0.34681965    -0.08860
H325        H  0.65172870  0.64314521  0.26908599     0.10820
H326        H  0.64243214  0.72526506  0.36050204     0.08350
H327        H  0.73360246  0.64239739  0.36001860     0.08200
C328        C  0.63682122  0.68356897  0.68806992     0.05240
C329        C  0.65389141  0.70061931  0.65542316    -0.10910
C330        C  0.68887353  0.68688186  0.64066857     0.02740
C331        C  0.70662798  0.65573222  0.65901946    -0.09440
C332        C  0.68923503  0.63732325  0.69055936     0.05230
C333        C  0.65429004  0.65144002  0.70499007    -0.08860
H334        H  0.63986549  0.72468971  0.64158032     0.10820
H335        H  0.73440315  0.64597111  0.64897194     0.08350
H336        H  0.64108258  0.63792006  0.72983766     0.08200
C337        C  0.74584654  0.79261226  0.94471494     0.25700
C338        C  0.76101434  0.75928319  0.96362139    -0.22400
C339        C  0.79611698  0.74541729  0.94766506     0.20610
C340        C  0.81529265  0.76476513  0.91769564     0.25650
C341        C  0.79812438  0.79551761  0.89767768    -0.22350
C342        C  0.76182603  0.80741677  0.91088102     0.20550
F343        F  0.74079220  0.83368870  0.89137931    -0.12310
F344        F  0.71566335  0.81270323  0.95897193    -0.14670
F345        F  0.85160690  0.75335941  0.90953732    -0.14670
F346        F  0.81368923  0.71343958  0.96011360    -0.12310
C347        C  0.76293025  0.76292055  0.10886463     0.25700
C348        C  0.79085517  0.79147429  0.10694558    -0.22400
C349        C  0.80284070  0.80545682  0.07117810     0.20610
C350        C  0.78736414  0.79099863  0.03738336     0.25650
C351        C  0.75896579  0.76158452  0.03845528    -0.22350
C352        C  0.74712216  0.74825681  0.07542309     0.20550
F353        F  0.71917280  0.72155462  0.07955821    -0.12310
F354        F  0.75073898  0.74924816  0.14340038    -0.14670
F355        F  0.80043378  0.80695680  0.00428007    -0.14670
F356        F  0.82983703  0.83341101  0.06895233    -0.12310
C357        C  0.74504408  0.24422902  0.92557642     0.25700
C358        C  0.76100449  0.23774897  0.96241873    -0.22400
C359        C  0.79780348  0.21987739  0.96307328     0.20610
C360        C  0.81448752  0.20487377  0.92975273     0.25650
C361        C  0.79620242  0.20838397  0.89447100    -0.22350
C362        C  0.76182242  0.22883541  0.89247869     0.20550
F363        F  0.74452093  0.23420116  0.85822155    -0.12310
F364        F  0.71218026  0.26442456  0.92134877    -0.14670
F365        F  0.84882722  0.18668760  0.93200762    -0.14670
F366        F  0.81930407  0.21832091  0.99513692    -0.12310
C367        C  0.76062632  0.19758735  0.04244008     0.25700
C368        C  0.75839552  0.23794402  0.03708165    -0.22400
C369        C  0.77008531  0.26100528  0.06838765     0.20610
C370        C  0.78666077  0.24450744  0.10100910     0.25650
C371        C  0.79172764  0.20463048  0.10416305    -0.22350
C372        C  0.77803187  0.18138631  0.07460212     0.20550
F373        F  0.78248430  0.14267570  0.07607185    -0.12310
F374        F  0.74746795  0.17341585  0.01532493    -0.14670
F375        F  0.79628364  0.26773981  0.13039456    -0.14670
F376        F  0.76334194  0.29928549  0.06961037    -0.12310
C377        C  0.20113123  0.77873462  0.96603210     0.25700
C378        C  0.23813784  0.76117623  0.96457689    -0.22400
C379        C  0.25451628  0.75636654  0.92749067     0.20610
C380        C  0.23794527  0.77307315  0.89499891     0.25650
C381        C  0.20315854  0.79294750  0.89775093    -0.22350
C382        C  0.18448389  0.79476638  0.93326572     0.20550
F383        F  0.14978687  0.81219437  0.93630100    -0.12310
F384        F  0.17945651  0.77912986  0.99847101    -0.14670
F385        F  0.25566585  0.76917414  0.86045214    -0.14670
F386        F  0.28744724  0.73639932  0.92239229    -0.12310
C387        C  0.22376124  0.81831646  0.07510828     0.25700
C388        C  0.20890881  0.79597994  0.10531004    -0.22400
C389        C  0.21183292  0.75583331  0.10302090     0.20610
C390        C  0.22763859  0.73822079  0.07056861     0.25650
C391        C  0.24060289  0.76043943  0.03863507    -0.22350
C392        C  0.24011917  0.80100036  0.04293497     0.20550
F393        F  0.25404247  0.82438842  0.01486086    -0.12310
F394        F  0.22128557  0.85720366  0.07595242    -0.14670
F395        F  0.23206555  0.69962042  0.07236377    -0.14670
F396        F  0.20047162  0.73336532  0.13298697    -0.12310
C397        C  0.25071477  0.21305019  0.89585251     0.25700
C398        C  0.21104515  0.20889025  0.89167235    -0.22400
C399        C  0.18666263  0.22290808  0.92052788     0.20610
C400        C  0.20154382  0.23960592  0.95327551     0.25650
C401        C  0.24158977  0.24093194  0.95973491    -0.22350
C402        C  0.26590934  0.22922344  0.92897048     0.20550
F403        F  0.30419795  0.23532133  0.92892691    -0.12310
F404        F  0.27498425  0.20261145  0.86713051    -0.14670
F405        F  0.17629513  0.25261969  0.97997509    -0.14670
F406        F  0.14808907  0.21916802  0.91787962    -0.12310
C407        C  0.23999544  0.25013742  0.07113115     0.25700
C408        C  0.23694426  0.23537589  0.03351649    -0.22400
C409        C  0.21935806  0.19854294  0.03026794     0.20610
C410        C  0.20100241  0.18100750  0.06162581     0.25650
C411        C  0.20066549  0.19852691  0.09741536    -0.22350
C412        C  0.22109137  0.23265604  0.10219537     0.20550
F413        F  0.22322240  0.24886761  0.13732791    -0.12310
F414        F  0.26004168  0.28257896  0.07792626    -0.14670
F415        F  0.18367344  0.14651934  0.05704166    -0.14670
F416        F  0.22120136  0.17785734  0.99758137    -0.12310
C417        C  0.80426140  0.96378876  0.76358692     0.25700
C418        C  0.76361306  0.96671248  0.76438008    -0.22400
C419        C  0.74392815  0.93920841  0.78766328     0.20610
C420        C  0.76311762  0.90820622  0.80436388     0.25650
C421        C  0.80325257  0.90498334  0.80245914    -0.22350
C422        C  0.82361745  0.93394050  0.78264519     0.20550
F423        F  0.86246979  0.93394044  0.78202025    -0.12310
F424        F  0.82558069  0.98989012  0.74374074    -0.14670
F425        F  0.74161630  0.88074732  0.82204128    -0.14670
F426        F  0.70621749  0.94215390  0.79657069    -0.12310
C427        C  0.78306509  0.06612764  0.73887700     0.25700
C428        C  0.76274190  0.03813935  0.76098981    -0.22400
C429        C  0.76288192  0.04302187  0.80138395     0.20610
C430        C  0.77971292  0.07517623  0.81820645     0.25650
C431        C  0.79642792  0.10425250  0.79545183    -0.22350
C432        C  0.79738539  0.09931542  0.75557720     0.20550
F433        F  0.81227173  0.12686360  0.73208120    -0.12310
F434        F  0.79150972  0.06158663  0.70125325    -0.14670
F435        F  0.78020077  0.07731190  0.85698312    -0.14670
F436        F  0.74577406  0.01681463  0.82487409    -0.12310
C437        C  0.93041945  0.24838209  0.75018552     0.25700
C438        C  0.96748361  0.23491621  0.76058823    -0.22400
C439        C  0.96839329  0.20097698  0.78386767     0.20610
C440        C  0.93503890  0.18637922  0.80101088     0.25650
C441        C  0.89954730  0.20344830  0.79420097    -0.22350
C442        C  0.89721979  0.23365591  0.76768939     0.20550
F443        F  0.86263750  0.24886004  0.75859792    -0.12310
F444        F  0.92644785  0.27732905  0.72421602    -0.14670
F445        F  0.93735294  0.15484074  0.82399450    -0.14670
F446        F  0.00053210  0.17967450  0.78855805    -0.12310
C447        C  0.10180237  0.20116383  0.75276240     0.25700
C448        C  0.10900587  0.20404997  0.79217109    -0.22400
C449        C  0.08156754  0.22247545  0.81545545     0.20610
C450        C  0.04889974  0.23905518  0.79959624     0.25650
C451        C  0.04109608  0.23612898  0.75994907    -0.22350
C452        C  0.06796674  0.21557913  0.73707795     0.20550
F453        F  0.06205417  0.20815338  0.69959048    -0.12310
F454        F  0.12787276  0.18485470  0.72878339    -0.14670
F455        F  0.02376433  0.25683172  0.82355483    -0.14670
F456        F  0.08553867  0.22356741  0.85405284    -0.12310
C457        C  0.26342171  0.92742990  0.77183459     0.25700
C458        C  0.24043935  0.95924989  0.76038088    -0.22400
C459        C  0.20014162  0.95421585  0.76251959     0.20610
C460        C  0.18383668  0.92135784  0.77891152     0.25650
C461        C  0.20692353  0.89101002  0.79189620    -0.22350
C462        C  0.24680124  0.89417703  0.78749985     0.20550
F463        F  0.26993127  0.86429144  0.79702920    -0.12310
F464        F  0.30177970  0.92643552  0.76574108    -0.14670
F465        F  0.14516899  0.91992685  0.78311687    -0.14670
F466        F  0.17607440  0.98211489  0.74997419    -0.12310
C467        C  0.22223539  0.03291489  0.79962241     0.25700
C468        C  0.23985318  0.03385056  0.76253640    -0.22400
C469        C  0.24575284  0.07081030  0.74592657     0.20610
C470        C  0.23002254  0.10375250  0.76237260     0.25650
C471        C  0.20987093  0.10154483  0.79706277    -0.22350
C472        C  0.20696811  0.06622361  0.81607877     0.20550
F473        F  0.18927882  0.06396338  0.85082726    -0.12310
F474        F  0.22110813  0.00056718  0.82145781    -0.14670
F475        F  0.23466339  0.13815293  0.74435647    -0.14670
F476        F  0.26557219  0.07533158  0.71268378    -0.12310
C477        C  0.90636012  0.80020657  0.75340993     0.25700
C478        C  0.89938902  0.79644984  0.79290868    -0.22400
C479        C  0.92658163  0.77650610  0.81505600     0.20610
C480        C  0.95861051  0.75915393  0.79788717     0.25650
C481        C  0.96520284  0.76144781  0.75780886    -0.22350
C482        C  0.93959130  0.78526358  0.73662937     0.20550
F483        F  0.94677829  0.79655096  0.70002757    -0.12310
F484        F  0.88091301  0.81837087  0.73036449    -0.14670
F485        F  0.98296411  0.73920065  0.82065804    -0.14670
F486        F  0.92272042  0.77430410  0.85372877    -0.12310
C487        C  0.04269977  0.79874241  0.75934582     0.25700
C488        C  0.03649560  0.75851999  0.76066124    -0.22400
C489        C  0.06182352  0.73675363  0.78416939     0.20610
C490        C  0.09460330  0.75312553  0.79959712     0.25650
C491        C  0.10143260  0.79275540  0.79663707    -0.22350
C492        C  0.07423454  0.81552033  0.77729609     0.20550
F493        F  0.07765697  0.85431616  0.77607980    -0.12310
F494        F  0.01843170  0.82204552  0.73983486    -0.14670
F495        F  0.11995166  0.72942840  0.81718764    -0.14670
F496        F  0.05484527  0.69983902  0.79457432    -0.12310
C497        C  0.24029063  0.95997411  0.20053200     0.25700
C498        C  0.23966219  0.96489141  0.24089269    -0.22400
C499        C  0.21841762  0.93734375  0.26264084     0.20610
C500        C  0.20402941  0.90424569  0.24570622     0.25650
C501        C  0.20591747  0.89915239  0.20584173    -0.22350
C502        C  0.22339430  0.92806557  0.18342263     0.20550
F503        F  0.22373469  0.92594439  0.14462935    -0.12310
F504        F  0.25836325  0.98582569  0.17737309    -0.14670
F505        F  0.18840676  0.87692207  0.26896582    -0.14670
F506        F  0.20933740  0.94225842  0.30007531    -0.12310
C507        C  0.26110959  0.06347983  0.21504819     0.25700
C508        C  0.24061976  0.03613912  0.23775666    -0.22400
C509        C  0.20012951  0.04030589  0.23909988     0.20610
C510        C  0.18169674  0.07123173  0.22111894     0.25650
C511        C  0.20291306  0.09990311  0.20189147    -0.22350
C512        C  0.24291995  0.09572512  0.19974609     0.20550
F513        F  0.26513323  0.12308710  0.18281186    -0.12310
F514        F  0.29845757  0.05906277  0.20520346    -0.14670
F515        F  0.14285415  0.07256035  0.22207312    -0.14670
F516        F  0.17814885  0.01457023  0.25869842    -0.12310
C517        C  0.92747400  0.79165997  0.18623899     0.25700
C518        C  0.89280945  0.78622870  0.20579687    -0.22400
C519        C  0.89229577  0.76456927  0.23967123     0.20610
C520        C  0.92646195  0.75066573  0.25521140     0.25650
C521        C  0.96258375  0.75986666  0.23834896    -0.22350
C522        C  0.96172581  0.77784597  0.20148442     0.20550
F523        F  0.99319398  0.78067230  0.17857812    -0.12310
F524        F  0.92820615  0.81068904  0.15214283    -0.14670
F525        F  0.92409299  0.72954958  0.28792164    -0.14670
F526        F  0.85856827  0.75693754  0.25782977    -0.12310
C527        C  0.04011538  0.80439973  0.23441511     0.25700
C528        C  0.03679100  0.76387976  0.23794766    -0.22400
C529        C  0.06866285  0.74168117  0.22531437     0.20610
C530        C  0.10048678  0.75907057  0.20786306     0.25650
C531        C  0.10213774  0.79905339  0.20237701    -0.22350
C532        C  0.07145937  0.82147684  0.21585108     0.20550
F533        F  0.07127823  0.86012273  0.21053676    -0.12310
F534        F  0.01199512  0.82775372  0.24794792    -0.14670
F535        F  0.13085758  0.73659157  0.19824302    -0.14670
F536        F  0.07155951  0.70354088  0.23261713    -0.12310
C537        C  0.74360663  0.92269463  0.24624093     0.25700
C538        C  0.76184742  0.95873559  0.24002581    -0.22400
C539        C  0.79913215  0.95762267  0.22301679     0.20610
C540        C  0.81421397  0.92349666  0.20819778     0.25650
C541        C  0.79356648  0.88920260  0.21088449    -0.22350
C542        C  0.75864563  0.88883602  0.23078264     0.20550
F543        F  0.73905993  0.85546339  0.23541208    -0.12310
F544        F  0.70998414  0.92015796  0.26575747    -0.14670
F545        F  0.84920365  0.92401544  0.19086930    -0.14670
F546        F  0.82235399  0.98876532  0.22187252    -0.12310
C547        C  0.77491571  0.06512612  0.26044069     0.25700
C548        C  0.76264274  0.03347724  0.23811454    -0.22400
C549        C  0.76582142  0.03777284  0.19767903     0.20610
C550        C  0.78306878  0.06998587  0.18079226     0.25650
C551        C  0.79671971  0.09997405  0.20336610    -0.22350
C552        C  0.79216977  0.09729930  0.24325247     0.20550
F553        F  0.80261676  0.12701838  0.26576156    -0.12310
F554        F  0.76782592  0.06733963  0.29855603    -0.14670
F555        F  0.78689049  0.07150970  0.14208224    -0.14670
F556        F  0.75285827  0.01005568  0.17407982    -0.12310
C557        C  0.93636971  0.21481443  0.25856007     0.25700
C558        C  0.96300838  0.23781048  0.23740490    -0.22400
C559        C  0.95782876  0.23934457  0.19713546     0.20610
C560        C  0.92650332  0.22154451  0.17964989     0.25650
C561        C  0.89835021  0.20228757  0.20170380    -0.22350
C562        C  0.90378753  0.19973755  0.24148566     0.20550
F563        F  0.87730611  0.18266230  0.26468321    -0.12310
F564        F  0.94188151  0.20434928  0.29554464    -0.14670
F565        F  0.92442100  0.22258750  0.14088387    -0.14670
F566        F  0.98317825  0.25858480  0.17439977    -0.12310
C567        C  0.09420911  0.24196629  0.19757155     0.25700
C568        C  0.09946447  0.20202885  0.20034460    -0.22400
C569        C  0.07091267  0.18032342  0.21931068     0.20610
C570        C  0.03929182  0.19828254  0.23671293     0.25650
C571        C  0.03437731  0.23873166  0.23519523    -0.22350
C572        C  0.06134784  0.25955647  0.21230125     0.20550
F573        F  0.05598732  0.29670308  0.20181872    -0.12310
F574        F  0.12110971  0.26475471  0.18070385    -0.14670
F575        F  0.01367673  0.17588992  0.25596394    -0.14670
F576        F  0.07304633  0.14142726  0.22059155    -0.12310
C577        C  0.27657234  0.30237482  0.46606172     0.25700
C578        C  0.25866903  0.26557574  0.46489757    -0.22400
C579        C  0.25357939  0.24960661  0.42797903     0.20610
C580        C  0.27033984  0.26627481  0.39534866     0.25650
C581        C  0.29083803  0.30054022  0.39787742    -0.22350
C582        C  0.29297668  0.31898556  0.43312474     0.20550
F583        F  0.31096585  0.35337033  0.43566231    -0.12310
F584        F  0.27707711  0.32374679  0.49831945    -0.14670
F585        F  0.26651983  0.24881793  0.36098687    -0.14670
F586        F  0.23367495  0.21671288  0.42325616    -0.12310
C587        C  0.29758456  0.26289040  0.54399299     0.25700
C588        C  0.25726020  0.26201363  0.53917172    -0.22400
C589        C  0.23435228  0.27340026  0.57110846     0.20610
C590        C  0.25112829  0.28762846  0.60437028     0.25650
C591        C  0.29105699  0.29062134  0.60738500    -0.22350
C592        C  0.31402662  0.27786662  0.57684681     0.20550
F593        F  0.35274751  0.28092766  0.57811784    -0.12310
F594        F  0.32160501  0.25044958  0.51593434    -0.14670
F595        F  0.22808627  0.29714526  0.63439239    -0.14670
F596        F  0.19587928  0.26861284  0.57217489    -0.12310
C597        C  0.69505918  0.27758020  0.46800639     0.25700
C598        C  0.73281988  0.26213013  0.46552823    -0.22400
C599        C  0.75068897  0.26267754  0.42877092     0.20610
C600        C  0.73395269  0.28169049  0.39790455     0.25650
C601        C  0.69833444  0.29978775  0.40191052    -0.22350
C602        C  0.67869655  0.29700137  0.43695826     0.20550
F603        F  0.64350181  0.31311849  0.44119770    -0.12310
F604        F  0.67311708  0.27319133  0.50002368    -0.14670
F605        F  0.75203535  0.28096967  0.36328190    -0.14670
F606        F  0.78364582  0.24340178  0.42149211    -0.12310
C607        C  0.73680349  0.30263322  0.54455578     0.25700
C608        C  0.73714476  0.26197667  0.53927804    -0.22400
C609        C  0.71788709  0.24070057  0.56906438     0.20610
C610        C  0.70761347  0.25734383  0.60384869     0.25650
C611        C  0.71060076  0.29695077  0.60930095    -0.22350
C612        C  0.72519511  0.31941619  0.57917586     0.20550
F613        F  0.72439098  0.35830008  0.58152093    -0.12310
F614        F  0.73902691  0.32714368  0.51446629    -0.14670
F615        F  0.69255231  0.23435720  0.63176016    -0.14670
F616        F  0.70361388  0.20497947  0.56405999    -0.12310
C617        C  0.17349286  0.21826503  0.48419575     0.25700
C618        C  0.19705019  0.24922605  0.49606297    -0.22400
C619        C  0.17876004  0.28539753  0.50001922     0.20610
C620        C  0.13862587  0.28845563  0.50033033     0.25650
C621        C  0.11575911  0.25590232  0.49428036    -0.22350
C622        C  0.13387245  0.22144153  0.48424082     0.20550
F623        F  0.11325145  0.19035607  0.47355736    -0.12310
F624        F  0.18797862  0.18461103  0.47113756    -0.14670
F625        F  0.12233211  0.32305108  0.50769609    -0.14670
F626        F  0.19956612  0.31750424  0.50636159    -0.12310
C627        C  0.02343471  0.27965302  0.63529222     0.25700
C628        C  0.99788181  0.25576397  0.61673793    -0.22400
C629        C  0.97679353  0.22914550  0.63845051     0.20610
C630        C  0.97979989  0.22781746  0.67844193     0.25650
C631        C  0.00324410  0.25440228  0.69865370    -0.22350
C632        C  0.02750550  0.27774454  0.67489272     0.20550
F633        F  0.05912898  0.29499369  0.68783715    -0.12310
F634        F  0.04745321  0.30264123  0.61459851    -0.14670
F635        F  0.96174772  0.19816432  0.69635579    -0.14670
F636        F  0.95339922  0.20384670  0.62086804    -0.12310
C637        C  0.02833726  0.23576896  0.36176889     0.25700
C638        C  0.99856028  0.25384608  0.38177595    -0.22400
C639        C  0.96896332  0.27130898  0.36157603     0.20610
C640        C  0.96879592  0.27051854  0.32171334     0.25650
C641        C  0.99886606  0.25267058  0.30031646    -0.22350
C642        C  0.02927666  0.23595073  0.32169388     0.20550
F643        F  0.06168910  0.22242448  0.30500306    -0.12310
F644        F  0.05793099  0.21977286  0.38118103    -0.14670
F645        F  0.93876020  0.28736712  0.30377471    -0.14670
F646        F  0.93964843  0.28868599  0.38057143    -0.12310
C647        C  0.86188788  0.21796344  0.48867796     0.25700
C648        C  0.87993976  0.25271859  0.49679594    -0.22400
C649        C  0.85715805  0.28582952  0.49919738     0.20610
C650        C  0.81714141  0.28346142  0.49724394     0.25650
C651        C  0.79792055  0.24754213  0.49604127    -0.22350
C652        C  0.82229124  0.21594813  0.48588902     0.20550
F653        F  0.80882308  0.18385471  0.46885452    -0.12310
F654        F  0.88253019  0.18584157  0.48078269    -0.14670
F655        F  0.79901637  0.31669868  0.48986810    -0.14670
F656        F  0.87349486  0.32108570  0.50116797    -0.12310
C657        C  0.97214028  0.72838754  0.63430564     0.25700
C658        C  0.00236056  0.74515789  0.61408818    -0.22400
C659        C  0.03255513  0.76198737  0.63384179     0.20610
C660        C  0.03306223  0.76156292  0.67385032     0.25650
C661        C  0.00191513  0.74578118  0.69527651    -0.22350
C662        C  0.97160715  0.72887859  0.67410032     0.20550
F663        F  0.94081241  0.71300654  0.69216557    -0.12310
F664        F  0.94236395  0.71252901  0.61541650    -0.14670
F665        F  0.06545932  0.77422938  0.69046108    -0.14670
F666        F  0.06254471  0.77759310  0.61417386    -0.12310
C667        C  0.03568631  0.74987556  0.36192876     0.25700
C668        C  0.00430421  0.76589303  0.38105007    -0.22400
C669        C  0.97662900  0.78589053  0.35996140     0.20610
C670        C  0.97743093  0.78491714  0.31983087     0.25650
C671        C  0.00465893  0.76158082  0.30042175    -0.22350
C672        C  0.03646288  0.74846009  0.32211948     0.20550
F673        F  0.06599532  0.72936965  0.30545459    -0.12310
F674        F  0.06483811  0.73379310  0.38193260    -0.14670
F675        F  0.95146770  0.80659533  0.30078694    -0.14670
F676        F  0.94770184  0.80465102  0.37817320    -0.12310
C677        C  0.68715273  0.70197989  0.43327843     0.25700
C678        C  0.70624693  0.70448330  0.39796980    -0.22400
C679        C  0.73989360  0.72605520  0.39518074     0.20610
C680        C  0.75531199  0.74337033  0.42758340     0.25650
C681        C  0.73888279  0.73763033  0.46461828    -0.22350
C682        C  0.70259041  0.71881694  0.46596438     0.20550
F683        F  0.68040399  0.71804928  0.49805728    -0.12310
F684        F  0.65318148  0.68322919  0.43612754    -0.14670
F685        F  0.78744181  0.76458419  0.42255953    -0.14670
F686        F  0.75769833  0.73081317  0.36072554    -0.12310
C687        C  0.72743966  0.76166374  0.57009164     0.25700
C688        C  0.74059881  0.73877289  0.53897552    -0.22400
C689        C  0.73958963  0.69836424  0.54454077     0.20610
C690        C  0.72218685  0.68182229  0.57682708     0.25650
C691        C  0.70705131  0.70481319  0.60613577    -0.22350
C692        C  0.71058112  0.74482713  0.60271974     0.20550
F693        F  0.69917697  0.76786078  0.63189061    -0.12310
F694        F  0.73299171  0.80011353  0.57111185    -0.14670
F695        F  0.71924582  0.64299436  0.57877582    -0.14670
F696        F  0.75403837  0.67440503  0.51756188    -0.12310
C697        C  0.82216081  0.71815262  0.48127730     0.25700
C698        C  0.80191806  0.74420098  0.50513332    -0.22400
C699        C  0.82356677  0.76319541  0.53358052     0.20610
C700        C  0.86344655  0.76364271  0.53186881     0.25650
C701        C  0.88304222  0.74314628  0.50353868    -0.22350
C702        C  0.86231282  0.71837346  0.47997878     0.20550
F703        F  0.88082594  0.69546098  0.45452668    -0.12310
F704        F  0.80383081  0.69226616  0.45928936    -0.14670
F705        F  0.88292759  0.78503736  0.55748079    -0.14670
F706        F  0.80632516  0.78548677  0.56031644    -0.12310
C707        C  0.76252772  0.13587268  0.52954735     0.25700
C708        C  0.74121596  0.11692067  0.50191802    -0.22400
C709        C  0.71917071  0.13846527  0.47620042     0.20610
C710        C  0.72054441  0.17870536  0.47608030     0.25650
C711        C  0.74418873  0.19861902  0.50228661    -0.22350
C712        C  0.76353119  0.17583581  0.53032161     0.20550
F713        F  0.78530886  0.19263981  0.55748424    -0.12310
F714        F  0.78268118  0.11557823  0.55591642    -0.14670
F715        F  0.69889029  0.19716518  0.44974147    -0.14670
F716        F  0.69746544  0.12043078  0.44983649    -0.12310
C717        C  0.78265071  0.86307707  0.48493723     0.25700
C718        C  0.74787448  0.88086159  0.49455151    -0.22400
C719        C  0.71519613  0.85763970  0.49955089     0.20610
C720        C  0.71829111  0.81746241  0.49872022     0.25650
C721        C  0.75450690  0.79932883  0.49530216    -0.22350
C722        C  0.78574733  0.82334698  0.48412683     0.20550
F723        F  0.81953310  0.80925512  0.47080282    -0.12310
F724        F  0.81412803  0.88407688  0.47541276    -0.14670
F725        F  0.68606900  0.79636480  0.50417821    -0.14670
F726        F  0.68028895  0.87357362  0.50621167    -0.12310
C727        C  0.76577523  0.97093912  0.63759198     0.25700
C728        C  0.74555029  0.99896997  0.61713896    -0.22400
C729        C  0.72632537  0.02782276  0.63709186     0.20610
C730        C  0.72761131  0.02906877  0.67698523     0.25650
C731        C  0.74753248  0.00067177  0.69880592    -0.22350
C732        C  0.76591581  0.97086023  0.67773287     0.20550
F733        F  0.78213058  0.93996967  0.69485937    -0.12310
F734        F  0.78396912  0.94222895  0.61858362    -0.14670
F735        F  0.70931105  0.05863280  0.69450436    -0.14670
F736        F  0.70694490  0.05559621  0.61780306    -0.12310
C737        C  0.71171561  0.98601999  0.36213096     0.25700
C738        C  0.74583951  0.99427358  0.38116081    -0.22400
C739        C  0.77985922  0.99698957  0.35921650     0.20610
C740        C  0.77894885  0.99499036  0.31909085     0.25650
C741        C  0.74374349  0.99266770  0.29946713    -0.22350
C742        C  0.71078609  0.98404406  0.32237662     0.20550
F743        F  0.67735759  0.97197351  0.30720680    -0.12310
F744        F  0.67876980  0.97889077  0.38192726    -0.14670
F745        F  0.81247140  0.99817869  0.29936866    -0.14670
F746        F  0.81413073  0.00225474  0.37633998    -0.12310
C747        C  0.25625584  0.70577608  0.40077084     0.25700
C748        C  0.29610612  0.70668203  0.39524705    -0.22400
C749        C  0.31860676  0.72264692  0.42431136     0.20610
C750        C  0.30149543  0.73940466  0.45663167     0.25650
C751        C  0.26111752  0.73992827  0.46184505    -0.22350
C752        C  0.23940232  0.71947928  0.43433732     0.20550
F753        F  0.20204890  0.71026271  0.43968474    -0.12310
F754        F  0.23285745  0.69171807  0.37346002    -0.14670
F755        F  0.32465845  0.75603655  0.48266145    -0.14670
F756        F  0.35741087  0.72164279  0.42194513    -0.12310
C757        C  0.28387561  0.68003881  0.56581088     0.25700
C758        C  0.30224797  0.70072626  0.59487134    -0.22400
C759        C  0.30157403  0.74102287  0.59233227     0.20610
C760        C  0.28507514  0.75996684  0.56119137     0.25650
C761        C  0.26343306  0.73978394  0.53342672    -0.22350
C762        C  0.26400034  0.69908221  0.53648691     0.20550
F763        F  0.24535119  0.67732450  0.51059349    -0.12310
F764        F  0.28570836  0.64114296  0.56494260    -0.14670
F765        F  0.29270518  0.79797791  0.55842995    -0.14670
F766        F  0.31672083  0.76292257  0.62033096    -0.12310
C767        C  0.17685555  0.73711991  0.52814563     0.25700
C768        C  0.19853630  0.75558756  0.49864702    -0.22400
C769        C  0.17751470  0.77555915  0.46974900     0.20610
C770        C  0.13767868  0.77674650  0.47023418     0.25650
C771        C  0.11716094  0.75743613  0.49878784    -0.22350
C772        C  0.13680010  0.73733083  0.52741205     0.20550
F773        F  0.11697868  0.71897222  0.55575914    -0.12310
F774        F  0.19329075  0.72049631  0.55904967    -0.14670
F775        F  0.11905189  0.79578237  0.44188305    -0.14670
F776        F  0.19579199  0.79368483  0.44026306    -0.12310
C777        C  0.23448811  0.13945415  0.53403859     0.25700
C778        C  0.25750894  0.12040934  0.50739466    -0.22400
C779        C  0.28178516  0.14183441  0.48319940     0.20610
C780        C  0.27969168  0.18205820  0.48255592     0.25650
C781        C  0.25215553  0.20156781  0.50552441    -0.22350
C782        C  0.23278581  0.17935774  0.53410501     0.20550
F783        F  0.20850870  0.19587954  0.55962959    -0.12310
F784        F  0.21269341  0.11927656  0.55956194    -0.14670
F785        F  0.30497439  0.20115368  0.45971640    -0.14670
F786        F  0.30635924  0.12377619  0.45891339    -0.12310
C787        C  0.21711091  0.01847671  0.64013708     0.25700
C788        C  0.24141833  0.99473939  0.61851560    -0.22400
C789        C  0.26260138  0.96630254  0.63711362     0.20610
C790        C  0.26324419  0.96459319  0.67692532     0.25650
C791        C  0.24471152  0.99322553  0.69933029    -0.22350
C792        C  0.21803889  0.01727601  0.68023133     0.20550
F793        F  0.19281572  0.03968758  0.69962356    -0.12310
F794        F  0.19374058  0.04412276  0.62248405    -0.14670
F795        F  0.28623475  0.93780622  0.69316754    -0.14670
F796        F  0.28376892  0.94076227  0.61666365    -0.12310
C797        C  0.27349645  0.97350563  0.32545981     0.25700
C798        C  0.25513776  0.00246165  0.30310353    -0.22400
C799        C  0.23823977  0.03363759  0.32351074     0.20610
C800        C  0.23763635  0.03399284  0.36352333     0.25650
C801        C  0.25586240  0.00511170  0.38451575    -0.22350
C802        C  0.27414867  0.97517320  0.36530813     0.20550
F803        F  0.29187757  0.94677890  0.38525238    -0.12310
F804        F  0.29085105  0.94304357  0.30853613    -0.14670
F805        F  0.22075960  0.06388668  0.38191353    -0.14670
F806        F  0.22462831  0.06556343  0.30596124    -0.12310
C807        C  0.26616626  0.86609408  0.46946630     0.25700
C808        C  0.24662716  0.88583637  0.49835536    -0.22400
C809        C  0.22815632  0.86536740  0.52754489     0.20610
C810        C  0.22935551  0.82538793  0.52809426     0.25650
C811        C  0.24837714  0.80422382  0.49860630    -0.22350
C812        C  0.26618841  0.82601102  0.46867036     0.20550
F813        F  0.28144899  0.80985524  0.43689596    -0.12310
F814        F  0.28397382  0.88584573  0.44075038    -0.14670
F815        F  0.21173051  0.80707469  0.55787112    -0.14670
F816        F  0.20975776  0.88418488  0.55626672    -0.12310
C817        C  0.42179075  0.31807932  0.27533260     0.25700
C818        C  0.39723629  0.29644532  0.29938878    -0.22400
C819        C  0.40830169  0.25827547  0.30782093     0.20610
C820        C  0.44210565  0.24265473  0.29245733     0.25650
C821        C  0.46325362  0.26223130  0.26338416    -0.22350
C822        C  0.45273091  0.30098119  0.25642542     0.20550
F823        F  0.47100816  0.32260120  0.22968169    -0.12310
F824        F  0.41650908  0.35634764  0.26994518    -0.14670
F825        F  0.45353557  0.20814651  0.30653267    -0.14670
F826        F  0.38628169  0.23503732  0.33022696    -0.12310
C827        C  0.54985518  0.29869870  0.24876918     0.25700
C828        C  0.53339995  0.26387370  0.26230054    -0.22400
C829        C  0.54690171  0.24983491  0.29780653     0.20610
C830        C  0.58044141  0.26424541  0.31383212     0.25650
C831        C  0.59722285  0.29877721  0.30001386    -0.22350
C832        C  0.57881347  0.31705400  0.26891657     0.20550
F833        F  0.58766123  0.35341919  0.25789462    -0.12310
F834        F  0.53859451  0.31574281  0.21573614    -0.14670
F835        F  0.59664674  0.24266184  0.34174884    -0.14670
F836        F  0.52970924  0.21964242  0.31569921    -0.12310
C837        C  0.46673615  0.71826519  0.29656342     0.25700
C838        C  0.46716171  0.74081923  0.26227823    -0.22400
C839        C  0.43075084  0.75242797  0.24822606     0.20610
C840        C  0.39670975  0.73672202  0.26314635     0.25650
C841        C  0.39775248  0.71014721  0.29335741    -0.22350
C842        C  0.43273745  0.70215286  0.31074017     0.20550
F843        F  0.43390713  0.67898546  0.34217801    -0.12310
F844        F  0.49825203  0.71310865  0.31831471    -0.14670
F845        F  0.36266177  0.74736867  0.24793471    -0.14670
F846        F  0.42804967  0.77756580  0.21849635    -0.12310
C847        C  0.57233320  0.76089334  0.27470182     0.25700
C848        C  0.54174772  0.73815003  0.26071703    -0.22400
C849        C  0.54730068  0.69771056  0.26135518     0.20610
C850        C  0.57935916  0.68096022  0.27856861     0.25650
C851        C  0.60831323  0.70386679  0.29407819    -0.22350
C852        C  0.60461646  0.74394101  0.29122656     0.20550
F853        F  0.63338875  0.76714314  0.30281938    -0.12310
F854        F  0.57360155  0.79946271  0.26980687    -0.14670
F855        F  0.58138908  0.64209446  0.28089120    -0.14670
F856        F  0.52061604  0.67402634  0.24635924    -0.12310
C857        C  0.46705072  0.13770221  0.23478820     0.25700
C858        C  0.50117455  0.11780723  0.24043093    -0.22400
C859        C  0.53500357  0.13804682  0.24594779     0.20610
C860        C  0.53482659  0.17808101  0.24686464     0.25650
C861        C  0.49992692  0.19931437  0.24422169    -0.22350
C862        C  0.46640766  0.17772994  0.23583386     0.20550
F863        F  0.43232577  0.19503994  0.22926645    -0.12310
F864        F  0.43405473  0.11825182  0.22860430    -0.14670
F865        F  0.56948775  0.19523679  0.24905402    -0.14670
F866        F  0.56871821  0.11892036  0.24930805    -0.12310
C867        C  0.64131496  0.97994138  0.21159047     0.25700
C868        C  0.61976695  0.00519403  0.23426230    -0.22400
C869        C  0.63863952  0.03276513  0.25581520     0.20610
C870        C  0.67837933  0.03242821  0.25818743     0.25650
C871        C  0.70027676  0.00233100  0.24147413    -0.22350
C872        C  0.68131497  0.97886280  0.21451984     0.20550
F873        F  0.70073323  0.95495978  0.19079452    -0.12310
F874        F  0.62354812  0.95488019  0.18814238    -0.14670
F875        F  0.69477082  0.05873887  0.28117438    -0.14670
F876        F  0.61842310  0.05919047  0.27606025    -0.12310
C877        C  0.36619484  0.02956158  0.26843517     0.25700
C878        C  0.38571250  0.99974354  0.25028758    -0.22400
C879        C  0.36510145  0.96988338  0.23391704     0.20610
C880        C  0.32515403  0.96920028  0.23611190     0.25650
C881        C  0.30427688  0.00023090  0.25274729    -0.22350
C882        C  0.32627079  0.03009907  0.26945190     0.20550
F883        F  0.30890780  0.06044847  0.28656588    -0.12310
F884        F  0.38585930  0.05883523  0.28442875    -0.14670
F885        F  0.30828865  0.93645510  0.22438832    -0.14670
F886        F  0.38392363  0.94002204  0.21742437    -0.12310
C887        C  0.50246191  0.86281156  0.21008248     0.25700
C888        C  0.50285143  0.88197859  0.24518067    -0.22400
C889        C  0.50056175  0.85984868  0.27909476     0.20610
C890        C  0.50041705  0.81949581  0.27765847     0.25650
C891        C  0.50254124  0.79987442  0.24222424    -0.22350
C892        C  0.49971688  0.82315980  0.20860287     0.20550
F893        F  0.49080797  0.80903766  0.17384477    -0.12310
F894        F  0.50334185  0.88238243  0.17627158    -0.14670
F895        F  0.49921253  0.79950284  0.31116452    -0.14670
F896        F  0.49840584  0.87705933  0.31376768    -0.12310
C897        C  0.46517610  0.28670257  0.70469469     0.25700
C898        C  0.46448103  0.26151502  0.73729083    -0.22400
C899        C  0.42776852  0.24688749  0.74809269     0.20610
C900        C  0.39406483  0.26170121  0.73221800     0.25650
C901        C  0.39579157  0.29016053  0.70379758    -0.22350
C902        C  0.43139612  0.30165886  0.68947042     0.20550
F903        F  0.43346444  0.32687657  0.65965163    -0.12310
F904        F  0.49762314  0.29519440  0.68483728    -0.14670
F905        F  0.35962556  0.24868692  0.74512188    -0.14670
F906        F  0.42439462  0.21911344  0.77545242    -0.12310
C907        C  0.57774133  0.32075048  0.72649162     0.25700
C908        C  0.60582371  0.29831337  0.70810268    -0.22400
C909        C  0.59987821  0.25855004  0.70554093     0.20610
C910        C  0.56639986  0.24163486  0.71957894     0.25650
C911        C  0.53819196  0.26369055  0.73925536    -0.22350
C912        C  0.54516255  0.30367416  0.74274751     0.20550
F913        F  0.51929280  0.32666815  0.76071660    -0.12310
F914        F  0.58109253  0.35951862  0.72798419    -0.14670
F915        F  0.56280545  0.20350130  0.71334194    -0.14670
F916        F  0.62711173  0.23526919  0.69015919    -0.12310
C917        C  0.53275711  0.24050891  0.13689198     0.25700
C918        C  0.49837499  0.24238509  0.11716470    -0.22400
C919        C  0.46434817  0.24984162  0.13708977     0.20610
C920        C  0.46424801  0.25380315  0.17688036     0.25650
C921        C  0.49880202  0.25073828  0.19804632    -0.22350
C922        C  0.53313653  0.24431167  0.17658244     0.20550
F923        F  0.56763565  0.24153147  0.19371762    -0.12310
F924        F  0.56627771  0.23524453  0.11755264    -0.14670
F925        F  0.42970599  0.25919829  0.19405862    -0.14670
F926        F  0.43086278  0.25288138  0.11786547    -0.12310
C927        C  0.67486605  0.26000755  0.03261484     0.25700
C928        C  0.69735761  0.24200746  0.00364631    -0.22400
C929        C  0.67815202  0.21580770  0.97957843     0.20610
C930        C  0.63799343  0.21474689  0.97897414     0.25650
C931        C  0.61634427  0.23844226  0.00330385    -0.22350
C932        C  0.63503492  0.25925584  0.03149780     0.20550
F933        F  0.61465247  0.27986620  0.05754225    -0.12310
F934        F  0.69109771  0.28252709  0.05936254    -0.14670
F935        F  0.62031396  0.19174490  0.95346338    -0.14670
F936        F  0.69751403  0.19102015  0.95673014    -0.12310
C937        C  0.35862621  0.21557823  0.00051944     0.25700
C938        C  0.38108928  0.24855577  0.00632704    -0.22400
C939        C  0.36255583  0.28256093  0.01701801     0.20610
C940        C  0.32277778  0.28485263  0.01777678     0.25650
C941        C  0.29974979  0.25366755  0.00537454    -0.22350
C942        C  0.31854033  0.21787305  0.00127482     0.20550
F943        F  0.29829417  0.18545818  0.99471169    -0.12310
F944        F  0.37521923  0.18117853  0.99287209    -0.14670
F945        F  0.30755217  0.31775215  0.03187903    -0.14670
F946        F  0.38285760  0.31390777  0.02750811    -0.12310
C947        C  0.53492823  0.25454333  0.86362726     0.25700
C948        C  0.50002221  0.25571350  0.88325263    -0.22400
C949        C  0.46725672  0.26652226  0.86327247     0.20610
C950        C  0.46840370  0.27001473  0.82327361     0.25650
C951        C  0.50159670  0.25866645  0.80203837    -0.22350
C952        C  0.53606292  0.25812411  0.82374221     0.20550
F953        F  0.57122853  0.25706210  0.80678008    -0.12310
F954        F  0.56803800  0.24930807  0.88305650    -0.14670
F955        F  0.43863580  0.28865017  0.80699517    -0.14670
F956        F  0.43436357  0.27481365  0.88259325    -0.12310
C957        C  0.48295348  0.14153398  0.72232949     0.25700
C958        C  0.50045802  0.11902405  0.75050129    -0.22400
C959        C  0.52062962  0.13702085  0.77936828     0.20610
C960        C  0.52237930  0.17674933  0.78128169     0.25650
C961        C  0.50176401  0.20098251  0.75546210    -0.22350
C962        C  0.48424686  0.18168753  0.72410536     0.20550
F963        F  0.47007592  0.20114199  0.69355847    -0.12310
F964        F  0.46446860  0.12471530  0.69288436    -0.14670
F965        F  0.54793220  0.18961495  0.80652851    -0.14670
F966        F  0.54122431  0.11592778  0.80482866    -0.12310
C967        C  0.63709172  0.02987854  0.76827478     0.25700
C968        C  0.61718125  0.00042603  0.75034190    -0.22400
C969        C  0.63756677  0.97113813  0.73222385     0.20610
C970        C  0.67753293  0.97095697  0.73235600     0.25650
C971        C  0.69881169  0.00095573  0.74975097    -0.22350
C972        C  0.67712043  0.03106228  0.76707751     0.20550
F973        F  0.69326517  0.06351611  0.78040986    -0.12310
F974        F  0.61754604  0.05911582  0.78504634    -0.14670
F975        F  0.69569092  0.94118490  0.71503105    -0.14670
F976        F  0.61868139  0.94223352  0.71472384    -0.12310
C977        C  0.35929441  0.99924411  0.78288217     0.25700
C978        C  0.38191436  0.00521285  0.74977738    -0.22400
C979        C  0.36356950  0.01430077  0.71540289     0.20610
C980        C  0.32394028  0.01396059  0.71311772     0.25650
C981        C  0.30064071  0.00240649  0.74493168    -0.22350
C982        C  0.31922375  0.99900676  0.78067743     0.20550
F983        F  0.29873102  0.99287745  0.81335119    -0.12310
F984        F  0.37576065  0.99270185  0.81735515    -0.14670
F985        F  0.30923482  0.02676441  0.67956344    -0.14670
F986        F  0.38389920  0.02447699  0.68353541    -0.12310
C987        C  0.43223326  0.72069894  0.75751320     0.25700
C988        C  0.46396903  0.73769777  0.73756909    -0.22400
C989        C  0.46435777  0.73325067  0.69702099     0.20610
C990        C  0.43459154  0.71460642  0.67788256     0.25650
C991        C  0.40259757  0.70025616  0.69811074    -0.22350
C992        C  0.40169589  0.70439498  0.73802122     0.20550
F993        F  0.37075290  0.69271062  0.75890514    -0.12310
F994        F  0.42992310  0.71766999  0.79609280    -0.14670
F995        F  0.43767683  0.70995426  0.63943416    -0.14670
F996        F  0.49380486  0.74740478  0.67549905    -0.12310
C997        C  0.57074886  0.75861801  0.72993926     0.25700
C998        C  0.53697340  0.73774731  0.74072341    -0.22400
C999        C  0.53790892  0.69747137  0.73310057     0.20610
C1000       C  0.56962573  0.67998677  0.71531954     0.25650
C1001       C  0.60244696  0.70132683  0.70608789    -0.22350
C1002       C  0.60291664  0.74033337  0.71467055     0.20550
F1003       F  0.63520281  0.76127937  0.70837706    -0.12310
F1004       F  0.57435956  0.79699257  0.73288642    -0.14670
F1005       F  0.56795766  0.64212216  0.70662686    -0.14670
F1006       F  0.50807010  0.67447192  0.74321260    -0.12310
C1007       C  0.47637575  0.82288759  0.72660689     0.25700
C1008       C  0.50030765  0.80184039  0.75220694    -0.22400
C1009       C  0.52322591  0.82430875  0.77737011     0.20610
C1010       C  0.52261322  0.86420442  0.77652117     0.25650
C1011       C  0.49994309  0.88384506  0.75023698    -0.22350
C1012       C  0.47738254  0.86302716  0.72495393     0.20550
F1013       F  0.45444019  0.88171502  0.69973761    -0.12310
F1014       F  0.45035233  0.80614111  0.70386923    -0.14670
F1015       F  0.54516356  0.88372415  0.80109139    -0.14670
F1016       F  0.54734223  0.80748918  0.80281755    -0.12310
C1017       C  0.53977057  0.75214867  0.13674832     0.25700
C1018       C  0.50666830  0.74051980  0.11808793    -0.22400
C1019       C  0.47741268  0.72259760  0.13928797     0.20610
C1020       C  0.47894754  0.72109778  0.17931505     0.25650
C1021       C  0.50822433  0.74096844  0.19895062    -0.22350
C1022       C  0.54094274  0.75199833  0.17670755     0.20550
F1023       F  0.57230125  0.76729773  0.19322365    -0.12310
F1024       F  0.57039052  0.76527520  0.11630594    -0.14670
F1025       F  0.45184956  0.70007194  0.19789931    -0.14670
F1026       F  0.44662934  0.70769428  0.12126286    -0.12310
C1027       C  0.47096681  0.77656825  0.86363767     0.25700
C1028       C  0.49673001  0.75397669  0.88411158    -0.22400
C1029       C  0.52091755  0.72865456  0.86433802     0.20610
C1030       C  0.52126956  0.72744948  0.82438253     0.25650
C1031       C  0.49616670  0.75102900  0.80258885    -0.22350
C1032       C  0.46984284  0.77445737  0.82377013     0.20550
F1033       F  0.44317116  0.79613202  0.80551406    -0.12310
F1034       F  0.44609364  0.80005817  0.88231097    -0.14670
F1035       F  0.54687967  0.70319103  0.80822877    -0.14670
F1036       F  0.54548554  0.70562685  0.88387417    -0.12310
C1037       C  0.36224284  0.78030421  0.98265604     0.25700
C1038       C  0.38249891  0.75523694  0.00680459    -0.22400
C1039       C  0.36242352  0.73303309  0.03357037     0.20610
C1040       C  0.32255975  0.73310196  0.03395771     0.25650
C1041       C  0.30146053  0.75322340  0.00536961    -0.22350
C1042       C  0.32212091  0.77982002  0.98219686     0.20550
F1043       F  0.30424069  0.80575582  0.95939867    -0.12310
F1044       F  0.38137293  0.80435491  0.95840979    -0.14670
F1045       F  0.30486708  0.70976697  0.05980081    -0.14670
F1046       F  0.38147357  0.71072262  0.05915697    -0.12310
C1047       C  0.63742116  0.73663483  0.96655581     0.25700
C1048       C  0.61687186  0.75475775  0.99579175    -0.22400
C1049       C  0.63653913  0.77647333  0.02287473     0.20610
C1050       C  0.67651178  0.77620207  0.02373694     0.25650
C1051       C  0.69774718  0.75298708  0.99786453    -0.22350
C1052       C  0.67738771  0.73690536  0.96665036     0.20550
F1053       F  0.69621358  0.71736918  0.93867751    -0.12310
F1054       F  0.61880090  0.71796345  0.93833993    -0.14670
F1055       F  0.69360473  0.79949789  0.04928555    -0.14670
F1056       F  0.61692875  0.79711203  0.04946396    -0.12310
C1057       C  0.25820724  0.39465784  0.27065386     0.25700
C1058       C  0.29297783  0.39542817  0.29000458    -0.22400
C1059       C  0.31361294  0.42975850  0.29111521     0.20610
C1060       C  0.29862103  0.46359008  0.27541334     0.25650
C1061       C  0.26124824  0.46452271  0.25940527    -0.22350
C1062       C  0.24316141  0.42830761  0.25445542     0.20550
F1063       F  0.20968199  0.42537171  0.23553859    -0.12310
F1064       F  0.23875543  0.36116898  0.26735632    -0.14670
F1065       F  0.32200947  0.49461247  0.27479033    -0.14670
F1066       F  0.34852865  0.43061192  0.30783196    -0.12310
C1067       C  0.26634192  0.54333493  0.30010665     0.25700
C1068       C  0.26199932  0.53938394  0.25994233    -0.22400
C1069       C  0.27392633  0.57116271  0.23684484     0.20610
C1070       C  0.29162821  0.60332169  0.25299288     0.25650
C1071       C  0.29794315  0.60548633  0.29262674    -0.22350
C1072       C  0.28519481  0.57480473  0.31585342     0.20550
F1073       F  0.29157589  0.57464623  0.35412863    -0.12310
F1074       F  0.25350566  0.51562254  0.32453799    -0.14670
F1075       F  0.30081588  0.63340778  0.22972729    -0.14670
F1076       F  0.26617188  0.57335673  0.19897109    -0.12310
C1077       C  0.70118732  0.45573874  0.26267850     0.25700
C1078       C  0.74155840  0.46053724  0.26135806    -0.22400
C1079       C  0.76409741  0.42865208  0.27360586     0.20610
C1080       C  0.74692489  0.39567969  0.28932778     0.25650
C1081       C  0.70696515  0.39274632  0.29259674    -0.22350
C1082       C  0.68435497  0.42295044  0.27861800     0.20550
F1083       F  0.64558474  0.42148488  0.28161166    -0.12310
F1084       F  0.67751734  0.48374848  0.24965728    -0.14670
F1085       F  0.76957629  0.36589815  0.30023406    -0.14670
F1086       F  0.80256547  0.42735743  0.26841062    -0.12310
C1087       C  0.72379509  0.53479105  0.29965448     0.25700
C1088       C  0.74146065  0.53525128  0.26262053    -0.22400
C1089       C  0.74744997  0.57204682  0.24561410     0.20610
C1090       C  0.73185530  0.60534464  0.26179779     0.25650
C1091       C  0.71194028  0.60362619  0.29670851    -0.22350
C1092       C  0.70892470  0.56835731  0.31591110     0.20550
F1093       F  0.69120826  0.56632502  0.35066596    -0.12310
F1094       F  0.72213887  0.50257542  0.32165859    -0.14670
F1095       F  0.73651283  0.63952889  0.24340267    -0.14670
F1096       F  0.76728232  0.57597759  0.21228341    -0.12310
C1097       C  0.13719936  0.53626801  0.24346321     0.25700
C1098       C  0.11860460  0.50747188  0.26459607    -0.22400
C1099       C  0.14035116  0.48297141  0.28789827     0.20610
C1100       C  0.18047542  0.48365565  0.28571266     0.25650
C1101       C  0.19942519  0.50781458  0.25859491    -0.22350
C1102       C  0.17707505  0.53743056  0.24160110     0.20550
F1103       F  0.19333640  0.56450705  0.21862185    -0.12310
F1104       F  0.11666732  0.56252342  0.22328760    -0.14670
F1105       F  0.20005405  0.46057697  0.31008917    -0.14670
F1106       F  0.12278738  0.45703429  0.31135412    -0.12310
C1107       C  0.99992394  0.64166303  0.22304078     0.25700
C1108       C  0.99861024  0.62012745  0.25739475    -0.22400
C1109       C  0.99397186  0.63974572  0.29194315     0.20610
C1110       C  0.99214304  0.67959038  0.29253889     0.25650
C1111       C  0.99837616  0.70205524  0.25867756    -0.22350
C1112       C  0.99920027  0.68186050  0.22365912     0.20550
F1113       F  0.00098913  0.70110311  0.18975679    -0.12310
F1114       F  0.00215478  0.62403765  0.18857140    -0.14670
F1115       F  0.98124747  0.69505585  0.32643092    -0.14670
F1116       F  0.98987679  0.62045483  0.32569265    -0.12310
C1117       C  0.96931258  0.32487747  0.23534672     0.25700
C1118       C  0.99944558  0.30247346  0.25128436    -0.22400
C1119       C  0.02989102  0.32296519  0.26883169     0.20610
C1120       C  0.03016833  0.36291814  0.27033417     0.25650
C1121       C  0.00070822  0.38415524  0.25388181    -0.22350
C1122       C  0.97067300  0.36507985  0.23591193     0.20550
F1123       F  0.94137167  0.38552637  0.22056414    -0.12310
F1124       F  0.93692842  0.30899801  0.22167424    -0.14670
F1125       F  0.05974339  0.38099607  0.28748352    -0.14670
F1126       F  0.05986408  0.30405647  0.28474828    -0.12310
C1127       C  0.82031730  0.50001822  0.28218144     0.25700
C1128       C  0.80231777  0.50304503  0.24613762    -0.22400
C1129       C  0.82625753  0.51360252  0.21444596     0.20610
C1130       C  0.86593940  0.51331345  0.21730939     0.25650
C1131       C  0.88361919  0.50479804  0.25218789    -0.22350
C1132       C  0.86031536  0.49978154  0.28501207     0.20550
F1133       F  0.87602502  0.49379372  0.31993992    -0.12310
F1134       F  0.79928929  0.49465748  0.31464380    -0.14670
F1135       F  0.88697793  0.52237667  0.18558181    -0.14670
F1136       F  0.81209525  0.52596193  0.18048739    -0.12310
C1137       C  0.03121194  0.67500372  0.72651556     0.25700
C1138       C  0.00061354  0.69615840  0.74384001    -0.22400
C1139       C  0.96953318  0.67458652  0.75938792     0.20610
C1140       C  0.97041718  0.63452545  0.75936764     0.25650
C1141       C  0.00073385  0.61469186  0.74199804    -0.22350
C1142       C  0.03091656  0.63506491  0.72533688     0.20550
F1143       F  0.06088588  0.61620141  0.70898547    -0.12310
F1144       F  0.06199921  0.69322297  0.71085713    -0.14670
F1145       F  0.94057187  0.61491943  0.77512008    -0.14670
F1146       F  0.93676419  0.69109172  0.77221336    -0.12310
C1147       C  0.97224420  0.35943125  0.77295827     0.25700
C1148       C  0.00291654  0.38037989  0.75761761    -0.22400
C1149       C  0.03741108  0.36143892  0.75053200     0.20610
C1150       C  0.03929275  0.32152324  0.75335733     0.25650
C1151       C  0.00540066  0.29918061  0.75744281    -0.22350
C1152       C  0.97415500  0.31927071  0.77479989     0.20550
F1153       F  0.94778763  0.30153760  0.79743886    -0.12310
F1154       F  0.94073953  0.37782562  0.78672665    -0.14670
F1155       F  0.07467128  0.30524067  0.75305891    -0.14670
F1156       F  0.06965335  0.38167311  0.74222428    -0.12310
C1157       C  0.70566911  0.46298807  0.72713476     0.25700
C1158       C  0.74253221  0.46320313  0.74417411    -0.22400
C1159       C  0.76015954  0.42682276  0.75027765     0.20610
C1160       C  0.74517964  0.39344772  0.73432372     0.25650
C1161       C  0.71089610  0.39483740  0.71419217    -0.22350
C1162       C  0.69067546  0.42943049  0.71183618     0.20550
F1163       F  0.65609498  0.43075229  0.69443386    -0.12310
F1164       F  0.68273073  0.49443235  0.72639004    -0.14670
F1165       F  0.76406454  0.35963279  0.73878028    -0.14670
F1166       F  0.79316891  0.42355026  0.77004973    -0.12310
C1167       C  0.74003434  0.54189714  0.70209120     0.25700
C1168       C  0.74296532  0.53773673  0.74244401    -0.22400
C1169       C  0.73078139  0.56949051  0.76497392     0.20610
C1170       C  0.71312420  0.60140556  0.74811383     0.25650
C1171       C  0.70795564  0.60347613  0.70841019    -0.22350
C1172       C  0.72200117  0.57359602  0.68557097     0.20550
F1173       F  0.71746682  0.57451605  0.64700470    -0.12310
F1174       F  0.75324416  0.51418452  0.67829003    -0.14670
F1175       F  0.70257077  0.63125667  0.77067643    -0.14670
F1176       F  0.73800012  0.57181970  0.80291553    -0.12310
C1177       C  0.82327369  0.48113767  0.71835329     0.25700
C1178       C  0.80454075  0.50511149  0.74546211    -0.22400
C1179       C  0.82688990  0.53437647  0.76226266     0.20610
C1180       C  0.86661537  0.53282726  0.76047676     0.25650
C1181       C  0.88500792  0.50431317  0.73921981    -0.22350
C1182       C  0.86328438  0.48035989  0.71591820     0.20550
F1183       F  0.88073609  0.45477729  0.69234662    -0.12310
F1184       F  0.80363034  0.45840843  0.69415007    -0.14670
F1185       F  0.88714634  0.55824636  0.78108511    -0.14670
F1186       F  0.81076324  0.56139447  0.78503738    -0.12310
C1187       C  0.71765941  0.51583853  0.14041971     0.25700
C1188       C  0.74134905  0.49101264  0.11939060    -0.22400
C1189       C  0.76348457  0.46388825  0.13872735     0.20610
C1190       C  0.76520829  0.46415440  0.17847671     0.25650
C1191       C  0.74677696  0.49350338  0.20004504    -0.22350
C1192       C  0.71974455  0.51674351  0.18044273     0.20550
F1193       F  0.69501582  0.54015191  0.19926465    -0.12310
F1194       F  0.69378809  0.54054876  0.12213484    -0.14670
F1195       F  0.78875555  0.43824956  0.19533406    -0.14670
F1196       F  0.78450281  0.43768051  0.11897663    -0.12310
C1197       C  0.72134180  0.50087331  0.86240174     0.25700
C1198       C  0.75449302  0.49731769  0.88477759    -0.22400
C1199       C  0.78932415  0.48906902  0.86634624     0.20610
C1200       C  0.79171117  0.48742843  0.82662490     0.25650
C1201       C  0.75959786  0.49656617  0.80338197    -0.22350
C1202       C  0.72372159  0.49939008  0.82242547     0.20550
F1203       F  0.69093902  0.50344973  0.80232484    -0.12310
F1204       F  0.68646764  0.50653850  0.87896200    -0.14670
F1205       F  0.82550335  0.47489524  0.81184077    -0.14670
F1206       F  0.82136044  0.48126547  0.88672396    -0.12310
C1207       C  0.71309461  0.63434370  0.01060793     0.25700
C1208       C  0.74862060  0.61582388  0.00936725    -0.22400
C1209       C  0.78163752  0.63837994  0.01425864     0.20610
C1210       C  0.77887533  0.67871868  0.01568260     0.25650
C1211       C  0.74387565  0.69787844  0.00784871    -0.22350
C1212       C  0.71076851  0.67395911  0.01245565     0.20550
F1213       F  0.67616247  0.68747995  0.02418129    -0.12310
F1214       F  0.67983067  0.61421742  0.01257355    -0.14670
F1215       F  0.81002515  0.69871271  0.02714785    -0.14670
F1216       F  0.81639803  0.62161690  0.01892918    -0.12310
C1217       C  0.71400026  0.36160196  0.98464701     0.25700
C1218       C  0.74832853  0.37983615  0.99398959    -0.22400
C1219       C  0.78145705  0.35718924  0.99836517     0.20610
C1220       C  0.77921395  0.31703266  0.99721570     0.25650
C1221       C  0.74339986  0.29833698  0.99410603    -0.22350
C1222       C  0.71170884  0.32185681  0.98360490     0.20550
F1223       F  0.67828117  0.30728908  0.97074771    -0.12310
F1224       F  0.68218643  0.38217967  0.97574531    -0.14670
F1225       F  0.81182492  0.29646709  0.00218763    -0.14670
F1226       F  0.81595221  0.37364248  0.00486314    -0.12310
C1227       C  0.26570547  0.45804733  0.69866835     0.25700
C1228       C  0.26489519  0.46287249  0.73902774    -0.22400
C1229       C  0.28572134  0.43530933  0.76090513     0.20610
C1230       C  0.30006977  0.40191410  0.74428654     0.25650
C1231       C  0.29885135  0.39644367  0.70453112    -0.22350
C1232       C  0.28268437  0.42572225  0.68180100     0.20550
F1233       F  0.28350596  0.42345005  0.64302757    -0.12310
F1234       F  0.24875137  0.48423910  0.67533097    -0.14670
F1235       F  0.31481968  0.37456271  0.76783754    -0.14670
F1236       F  0.29442912  0.44037075  0.79822204    -0.12310
C1237       C  0.24259912  0.56264686  0.71470416     0.25700
C1238       C  0.26328984  0.53456721  0.73608433    -0.22400
C1239       C  0.30381915  0.53808342  0.73536515     0.20610
C1240       C  0.32221300  0.56825159  0.71576084     0.25650
C1241       C  0.30099143  0.59763392  0.69780719    -0.22350
C1242       C  0.26085479  0.59458408  0.69848943     0.20550
F1243       F  0.23847629  0.62281368  0.68366473    -0.12310
F1244       F  0.20480418  0.55952221  0.70715473    -0.14670
F1245       F  0.36104358  0.56799142  0.71385102    -0.14670
F1246       F  0.32603192  0.51199971  0.75385889    -0.12310
C1247       C  0.17759110  0.52736094  0.77028817     0.25700
C1248       C  0.19980359  0.49845866  0.75154290    -0.22400
C1249       C  0.17912999  0.46831296  0.73378844     0.20610
C1250       C  0.13917118  0.46865265  0.73314546     0.25650
C1251       C  0.11834516  0.49704628  0.75229656    -0.22350
C1252       C  0.13770213  0.52621452  0.77104892     0.20550
F1253       F  0.11790781  0.55443272  0.78919577    -0.12310
F1254       F  0.19475042  0.55722700  0.78796363    -0.14670
F1255       F  0.12061247  0.43987531  0.71511146    -0.14670
F1256       F  0.19620369  0.43670091  0.71918252    -0.12310
C1257       C  0.21081544  0.48838296  0.13826331     0.25700
C1258       C  0.24488663  0.49579058  0.11811190    -0.22400
C1259       C  0.27881190  0.50022237  0.13910442     0.20610
C1260       C  0.27787345  0.50031844  0.17930161     0.25650
C1261       C  0.24273135  0.49811178  0.19984354    -0.22350
C1262       C  0.20982032  0.48833650  0.17808417     0.20550
F1263       F  0.17644886  0.47655797  0.19447422    -0.12310
F1264       F  0.17807273  0.47990381  0.11949342    -0.14670
F1265       F  0.31136277  0.50476221  0.19804324    -0.14670
F1266       F  0.31298343  0.50531649  0.12091035    -0.12310
C1267       C  0.28138099  0.63536313  0.98490536     0.25700
C1268       C  0.24692487  0.61763697  0.99563993    -0.22400
C1269       C  0.21440702  0.64092100  0.00155744     0.20610
C1270       C  0.21746316  0.68110926  0.00050560     0.25650
C1271       C  0.25355352  0.69914811  0.99590262    -0.22350
C1272       C  0.28444413  0.67510643  0.98381852     0.20550
F1273       F  0.31795894  0.68925124  0.96974074    -0.12310
F1274       F  0.31246697  0.61425800  0.97443442    -0.14670
F1275       F  0.18538137  0.70221900  0.00675835    -0.14670
F1276       F  0.17973970  0.62500057  0.00942035    -0.12310
C1277       C  0.21635241  0.31951381  0.01794433     0.25700
C1278       C  0.24445413  0.30070495  0.99509497    -0.22400
C1279       C  0.26432192  0.32367817  0.96750912     0.20610
C1280       C  0.26250420  0.36354052  0.96858729     0.25650
C1281       C  0.23897837  0.38186688  0.99535797    -0.22350
C1282       C  0.21425044  0.35972493  0.01845120     0.20550
F1283       F  0.18902637  0.37700866  0.04264196    -0.12310
F1284       F  0.19037538  0.29976553  0.03938457    -0.14670
F1285       F  0.28451728  0.38434063  0.94376134    -0.14670
F1286       F  0.28905376  0.30784534  0.94196265    -0.12310
C1287       C  0.26484424  0.52910833  0.86244295     0.25700
C1288       C  0.24488210  0.50056671  0.88272466    -0.22400
C1289       C  0.22681937  0.47133102  0.86287198     0.20610
C1290       C  0.22881367  0.47031434  0.82306457     0.25650
C1291       C  0.24821951  0.49939973  0.80135189    -0.22350
C1292       C  0.26573049  0.52938316  0.82237637     0.20550
F1293       F  0.28182407  0.56049671  0.80530155    -0.12310
F1294       F  0.28211644  0.55798849  0.88157514    -0.14670
F1295       F  0.21161009  0.44041578  0.80548857    -0.14670
F1296       F  0.20795327  0.44299627  0.88217043    -0.12310
loop_ 
_geom_bond_atom_site_label_1 
_geom_bond_atom_site_label_2 
_geom_bond_distance 
_geom_bond_site_symmetry_2 
_ccdc_geom_bond_type 
O1           Cu9   2.009       .  S
O1           C11   1.280       .  A
O2           Cu9   2.002   1_554  S
O2           C12   1.280   1_554  A
O3           Cu9   2.002   1_554  S
O3           C13   1.275       .  A
O4           Cu9   1.990       .  S
O4           C14   1.274       .  A
O5          Cu10   2.014   1_556  S
O5           C14   1.279       .  A
O6          Cu10   2.012       .  S
O6           C13   1.281       .  A
O7          Cu10   2.007   1_556  S
O7           C12   1.276       .  A
O8          Cu10   2.000       .  S
O8           C11   1.275   1_554  A
Cu9         Cu10   2.371   1_556  S
C11        C1281   1.471       .  S
C12        C1268   1.484       .  S
C13        C1258   1.487       .  S
C14        C1288   1.465       .  S
C15        C1228   1.572       .  S
C15        C1238   1.574       .  S
C15        C1248   1.569       .  S
C15        C1291   1.567       .  S
O16         Cu24   1.994       .  S
O16          C26   1.274       .  A
O17         Cu24   1.991   1_556  S
O17          C27   1.274       .  A
O18         Cu24   1.993   1_556  S
O18          C28   1.278       .  A
O19         Cu24   1.990       .  S
O19          C29   1.278       .  A
O20         Cu25   2.018       .  S
O20          C29   1.277       .  A
O21         Cu25   2.006       .  S
O21          C28   1.276   1_554  A
O22         Cu25   2.007   1_556  S
O22          C27   1.280       .  A
O23         Cu25   2.007       .  S
O23          C26   1.279       .  A
Cu24        Cu25   2.369       .  S
C26        C1188   1.467       .  S
C27        C1198   1.482       .  S
C28        C1218   1.482       .  S
C29        C1208   1.487       .  S
C30        C1158   1.564       .  S
C30        C1168   1.564       .  S
C30        C1178   1.557       .  S
C30        C1201   1.563       .  S
O31         Cu39   2.017   1_455  S
O31          C41   1.280       .  A
O32         Cu39   2.000       .  S
O32          C42   1.279       .  A
O33         Cu39   1.995       .  S
O33          C43   1.274   1_655  A
O34         Cu39   1.976       .  S
O34          C44   1.272   1_655  A
O35         Cu40   2.022       .  S
O35          C44   1.280       .  A
O36         Cu40   2.014       .  S
O36          C43   1.279       .  A
O37         Cu40   1.995   1_655  S
O37          C42   1.274       .  A
O38         Cu40   1.983       .  S
O38          C41   1.273       .  A
Cu39        Cu40   2.380   1_655  S
C41        C1251   1.465       .  S
C42        C1181   1.465       .  S
C43        C1148   1.464       .  S
C44        C1141   1.463       .  S
O45         Cu53   2.000       .  S
O45          C55   1.275       .  A
O46         Cu53   1.988       .  S
O46          C56   1.274       .  A
O47         Cu53   2.016       .  S
O47          C57   1.281       .  A
O48         Cu53   2.004   1_655  S
O48          C58   1.279       .  A
O49         Cu54   2.001       .  S
O49          C58   1.276       .  A
O50         Cu54   2.001   1_455  S
O50          C57   1.274       .  A
O51         Cu54   2.013       .  S
O51          C56   1.281   1_655  A
O52         Cu54   2.016   1_455  S
O52          C55   1.279       .  A
Cu53        Cu54   2.372   1_455  S
C55        C1121   1.468       .  S
C56        C1108   1.485   1_455  S
C57        C1098   1.472       .  S
C58        C1131   1.485       .  S
C59        C1078   1.566       .  S
C59        C1088   1.571       .  S
C59        C1128   1.565       .  S
C59        C1191   1.561       .  S
C60        C1061   1.572       .  S
C60        C1068   1.573       .  S
C60        C1101   1.564       .  S
C60        C1261   1.569       .  S
O61         Cu69   2.033   1_556  S
O61          C71   1.282       .  A
O62         Cu69   2.036       .  S
O62          C72   1.283       .  A
O63         Cu69   1.975       .  S
O63          C73   1.271   1_554  A
O64         Cu69   1.980       .  S
O64          C74   1.271       .  A
O65         Cu70   2.028   1_554  S
O65          C74   1.283       .  A
O66         Cu70   2.029       .  S
O66          C73   1.282       .  A
O67         Cu70   1.979   1_554  S
O67          C72   1.270       .  A
O68         Cu70   1.971       .  S
O68          C71   1.271       .  A
Cu69        Cu70   2.378   1_554  S
C71        C1028   1.470       .  S
C72        C1018   1.467       .  S
C73        C1048   1.467       .  S
C74        C1038   1.469       .  S
C75         C988   1.583       .  S
C75         C998   1.587       .  S
C75        C1008   1.581       .  S
C75        C1031   1.573       .  S
O76         Cu84   2.000   1_565  S
O76          C86   1.276       .  A
O77         Cu84   2.007       .  S
O77          C87   1.277       .  A
O78         Cu84   2.011       .  S
O78          C88   1.278       .  A
O79         Cu84   1.992       .  S
O79          C89   1.278       .  A
O80         Cu85   2.006       .  S
O80          C89   1.276       .  A
O81         Cu85   2.004       .  S
O81          C88   1.276       .  A
O82         Cu85   1.988       .  S
O82          C87   1.277       .  A
O83         Cu85   1.998   1_565  S
O83          C86   1.278       .  A
Cu84        Cu85   2.374       .  S
C86        C1011   1.469       .  S
C87         C958   1.471       .  S
C88         C968   1.469       .  S
C89         C978   1.482       .  S
O90         Cu98   1.996       .  S
O90         C100   1.274   1_556  A
O91         Cu98   1.996   1_554  S
O91         C101   1.275       .  A
O92         Cu98   2.030       .  S
O92         C102   1.281       .  A
O93         Cu98   2.030   1_554  S
O93         C103   1.281       .  A
O94         Cu99   1.971       .  S
O94         C103   1.270       .  A
O95         Cu99   1.986   1_556  S
O95         C102   1.272       .  A
O96         Cu99   2.012       .  S
O96         C101   1.281       .  A
O97         Cu99   2.019       .  S
O97         C100   1.281       .  A
Cu98        Cu99   2.376   1_556  S
C100        C931   1.473       .  S
C101        C938   1.485       .  S
C102        C948   1.466       .  S
C103        C918   1.460       .  S
C104        C898   1.581       .  S
C104        C911   1.559       .  S
C104        C951   1.592       .  S
C104        C961   1.583       .  S
O105       Cu113   2.009       .  S
O105        C115   1.278   1_545  A
O106       Cu113   2.004       .  S
O106        C116   1.279       .  A
O107       Cu113   1.997       .  S
O107        C117   1.275       .  A
O108       Cu113   2.019   1_565  S
O108        C118   1.278       .  A
O109       Cu114   1.991       .  S
O109        C118   1.278       .  A
O110       Cu114   2.006   1_545  S
O110        C117   1.277       .  A
O111       Cu114   2.004   1_545  S
O111        C116   1.275       .  A
O112       Cu114   1.995       .  S
O112        C115   1.275       .  A
Cu113      Cu114   2.376   1_545  S
C115        C878   1.465       .  S
C116        C868   1.469       .  S
C117        C858   1.461       .  S
C118        C888   1.489       .  S
C119        C838   1.574       .  S
C119        C848   1.570       .  S
C119        C891   1.572       .  S
C119       C1021   1.567       .  S
C120        C821   1.568       .  S
C120        C828   1.564       .  S
C120        C861   1.569       .  S
C120        C921   1.560       .  S
O121       Cu129   1.987       .  S
O121        C131   1.273   1_545  A
O122       Cu129   1.996       .  S
O122        C132   1.275       .  A
O123       Cu129   2.019   1_565  S
O123        C133   1.280       .  A
O124       Cu129   2.009       .  S
O124        C134   1.280       .  A
O125       Cu130   2.002       .  S
O125        C134   1.275       .  A
O126       Cu130   1.983   1_565  S
O126        C133   1.273       .  A
O127       Cu130   2.009       .  S
O127        C132   1.278       .  A
O128       Cu130   2.019   1_565  S
O128        C131   1.281       .  A
Cu129      Cu130   2.379       .  S
C131        C788   1.469       .  S
C132        C801   1.466       .  S
C133        C808   1.463       .  S
C134        C778   1.470       .  S
C135        C751   1.572       .  S
C135        C761   1.576       .  S
C135        C768   1.566       .  S
C135        C811   1.568       .  S
O136       Cu144   1.997       .  S
O136        C146   1.279       .  A
O137       Cu144   2.011   1_545  S
O137        C147   1.279       .  A
O138       Cu144   2.003       .  S
O138        C148   1.276       .  A
O139       Cu144   2.010   1_545  S
O139        C149   1.277   1_545  A
O140       Cu145   2.008       .  S
O140        C149   1.280       .  A
O141       Cu145   2.020       .  S
O141        C148   1.280       .  A
O142       Cu145   2.007   1_545  S
O142        C147   1.276       .  A
O143       Cu145   2.010       .  S
O143        C146   1.277       .  A
Cu144      Cu145   2.370       .  S
C146        C718   1.485       .  S
C147        C708   1.473       .  S
C148        C728   1.473       .  S
C149        C738   1.490       .  S
C150        C681   1.572       .  S
C150        C688   1.567       .  S
C150        C698   1.565       .  S
C150        C721   1.566       .  S
O151       Cu159   1.984       .  S
O151        C161   1.273       .  A
O152       Cu159   1.993   1_655  S
O152        C162   1.274       .  A
O153       Cu159   2.017       .  S
O153        C163   1.281       .  A
O154       Cu159   2.012       .  S
O154        C164   1.279       .  A
O155       Cu160   1.980   1_455  S
O155        C164   1.272       .  A
O156       Cu160   1.992       .  S
O156        C163   1.273   1_655  A
O157       Cu160   2.022       .  S
O157        C162   1.282       .  A
O158       Cu160   2.019   1_455  S
O158        C161   1.280       .  A
Cu159      Cu160   2.374   1_455  S
C161        C771   1.465       .  S
C162        C701   1.475       .  S
C163        C668   1.467       .  S
C164        C658   1.459       .  S
O165       Cu173   2.014       .  S
O165        C175   1.279       .  A
O166       Cu173   2.010       .  S
O166        C176   1.278       .  A
O167       Cu173   2.014       .  S
O167        C177   1.278       .  A
O168       Cu173   2.021   1_455  S
O168        C178   1.278       .  A
O169       Cu174   1.989   1_455  S
O169        C178   1.277       .  A
O170       Cu174   1.987       .  S
O170        C177   1.277       .  A
O171       Cu174   1.998   1_455  S
O171        C176   1.275   1_455  A
O172       Cu174   1.999       .  S
O172        C175   1.275       .  A
Cu173      Cu174   2.371       .  S
C175        C628   1.474       .  S
C176        C638   1.467       .  S
C177        C648   1.484       .  S
C178        C621   1.484       .  S
C179        C598   1.561       .  S
C179        C608   1.598       .  S
C179        C651   1.598       .  S
C179        C711   1.570       .  S
C180        C578   1.569       .  S
C180        C588   1.565       .  S
C180        C618   1.566       .  S
C180        C781   1.564       .  S
C181        C558   1.575       .  S
C181        C571   1.571   1_655  S
C181        C641   1.568       .  S
C181       C1118   1.569       .  S
C182        C538   1.569       .  S
C182        C548   1.569   1_565  S
C182        C741   1.569       .  S
C182        C871   1.563   1_565  S
C183        C521   1.570   1_455  S
C183        C528   1.565       .  S
C183        C671   1.562       .  S
C183       C1111   1.567   1_455  S
C184        C498   1.570   1_545  S
C184        C508   1.569       .  S
C184        C798   1.568       .  S
C184        C881   1.568       .  S
C185        C481   1.571   1_455  S
C185        C488   1.572       .  S
C185        C661   1.562       .  S
C185       C1138   1.564       .  S
C186        C458   1.565       .  S
C186        C468   1.569   1_565  S
C186        C791   1.562       .  S
C186        C981   1.564   1_565  S
C187        C438   1.578   1_455  S
C187        C451   1.558       .  S
C187        C631   1.590       .  S
C187       C1151   1.590       .  S
C188        C418   1.576   1_545  S
C188        C428   1.572       .  S
C188        C731   1.573       .  S
C188        C971   1.572       .  S
C189        C401   1.565       .  S
C189        C408   1.570   1_556  S
C189        C941   1.566   1_556  S
C189       C1278   1.563       .  S
C190        C378   1.573   1_554  S
C190        C391   1.566       .  S
C190       C1041   1.563       .  S
C190       C1271   1.567   1_554  S
C191        C358   1.572       .  S
C191        C368   1.569   1_556  S
C191        C928   1.564   1_556  S
C191       C1221   1.564       .  S
C192        C338   1.598   1_554  S
C192        C351   1.568       .  S
C192       C1051   1.562   1_554  S
C192       C1211   1.593       .  S
C193        C371   1.494       .  S
C193        C194   1.405       .  A
C193        C198   1.411       .  A
C194        C195   1.401       .  A
C194        H199   1.083       .  S
C195        C551   1.489       .  S
C195        C196   1.404       .  A
C196        C197   1.412       .  A
C196        H200   1.082       .  S
C197        C561   1.505       .  S
C197        C198   1.412       .  A
C198        H201   1.081       .  S
C202        C388   1.490       .  S
C202        C203   1.404       .  A
C202        C207   1.407       .  A
C203        C204   1.404       .  A
C203        H208   1.083       .  S
C204        C531   1.492       .  S
C204        C205   1.405       .  A
C205        C206   1.408       .  A
C205        H209   1.080       .  S
C206        C501   1.498       .  S
C206        C207   1.408       .  A
C207        H210   1.083       .  S
C211        C448   1.495       .  S
C211        C212   1.408       .  A
C211        C216   1.406       .  A
C212        C213   1.402       .  A
C212        H217   1.083       .  S
C213        C471   1.476       .  S
C213        C214   1.401       .  A
C214        C215   1.405       .  A
C214        H218   1.083       .  S
C215        C398   1.487       .  S
C215        C216   1.405       .  A
C216        H219   1.083       .  S
C220        C348   1.477       .  S
C220        C221   1.405       .  A
C220        C225   1.403       .  A
C221        C222   1.405       .  A
C221        H226   1.084       .  S
C222        C541   1.480       .  S
C222        C223   1.403       .  A
C223        C224   1.403       .  A
C223        H227   1.084       .  S
C224        C518   1.476       .  S
C224        C225   1.403       .  A
C225        H228   1.084       .  S
C229        C491   1.501       .  S
C229        C230   1.408       .  A
C229        C234   1.412       .  A
C230        C231   1.407       .  A
C230        H235   1.082       .  S
C231        C461   1.491       .  S
C231        C232   1.406       .  A
C232        C233   1.401       .  A
C232        H236   1.083       .  S
C233        C381   1.483       .  S
C233        C234   1.404       .  A
C234        H237   1.082       .  S
C238        C431   1.496       .  S
C238        C239   1.408       .  A
C238        C243   1.410       .  A
C239        C240   1.399       .  A
C239        H244   1.083       .  S
C240        C441   1.477       .  S
C240        C241   1.402       .  A
C241        C242   1.404       .  A
C241        H245   1.084       .  S
C242        C361   1.481       .  S
C242        C243   1.407       .  A
C243        H246   1.083       .  S
C247        C478   1.499       .  S
C247        C248   1.409       .  A
C247        C252   1.407       .  A
C248        C249   1.404       .  A
C248        H253   1.078       .  S
C249        C421   1.505       .  S
C249        C250   1.408       .  A
C250        C251   1.415       .  A
C250        H254   1.079       .  S
C251        C341   1.517       .  S
C251        C252   1.412       .  A
C252        H255   1.079       .  S
C256        C411   1.479       .  S
C256        C257   1.399       .  A
C256        C261   1.397       .  A
C257        C258   1.410       .  A
C257        H262   1.082       .  S
C258        C568   1.500       .  S
C258        C259   1.411       .  A
C259        C260   1.411       .  A
C259        H263   1.082       .  S
C260        C511   1.497       .  S
C260        C261   1.408       .  A
C261        H264   1.082       .  S
C265        C591   1.489       .  S
C265        C266   1.408       .  A
C265        C270   1.406       .  A
C266        C267   1.409       .  A
C266        H271   1.082       .  S
C267       C1231   1.497       .  S
C267        C268   1.409       .  A
C268        C269   1.400       .  A
C268        H272   1.083       .  S
C269        C901   1.477       .  S
C269        C270   1.398       .  A
C270        H273   1.084       .  S
C274        C831   1.518       .  S
C274        C275   1.418       .  A
C274        C279   1.414       .  A
C275        C276   1.405       .  A
C275        H280   1.076       .  S
C276       C1081   1.488       .  S
C276        C277   1.398       .  A
C277        C278   1.399       .  A
C277        H281   1.083       .  S
C278        C601   1.480       .  S
C278        C279   1.403       .  A
C279        H282   1.082       .  S
C283       C1071   1.502       .  S
C283        C284   1.410       .  A
C283        C288   1.409       .  A
C284        C285   1.407       .  A
C284        H289   1.083       .  S
C285        C841   1.479       .  S
C285        C286   1.400       .  A
C286        C287   1.405       .  A
C286        H290   1.083       .  S
C287        C748   1.498       .  S
C287        C288   1.411       .  A
C288        H291   1.080       .  S
C292        C581   1.476       .  S
C292        C293   1.400       .  A
C292        C297   1.404       .  A
C293        C294   1.400       .  A
C293        H298   1.084       .  S
C294       C1058   1.479       .  S
C294        C295   1.402       .  A
C295        C296   1.414       .  A
C295        H299   1.080       .  S
C296        C818   1.510       .  S
C296        C297   1.413       .  A
C297        H300   1.080       .  S
C301       C1241   1.503       .  S
C301        C302   1.411       .  A
C301        C306   1.406       .  A
C302        C303   1.409       .  A
C302        H307   1.079       .  S
C303        C758   1.506       .  S
C303        C304   1.412       .  A
C304        C305   1.407       .  A
C304        H308   1.080       .  S
C305        C991   1.500       .  S
C305        C306   1.408       .  A
C306        H309   1.081       .  S
C310        C908   1.491       .  S
C310        C311   1.402       .  A
C310        C315   1.405       .  A
C311        C312   1.400       .  A
C311        H316   1.083       .  S
C312       C1161   1.472       .  S
C312        C313   1.405       .  A
C313        C314   1.406       .  A
C313        H317   1.083       .  S
C314        C611   1.492       .  S
C314        C315   1.406       .  A
C315        H318   1.083       .  S
C319       C1091   1.482       .  S
C319        C320   1.405       .  A
C319        C324   1.404       .  A
C320        C321   1.409       .  A
C320        H325   1.083       .  S
C321        C851   1.495       .  S
C321        C322   1.409       .  A
C322        C323   1.403       .  A
C322        H326   1.083       .  S
C323        C678   1.481       .  S
C323        C324   1.404       .  A
C324        H327   1.084       .  S
C328       C1001   1.486       .  S
C328        C329   1.409       .  A
C328        C333   1.403       .  A
C329        C330   1.406       .  A
C329        H334   1.083       .  S
C330        C691   1.490       .  S
C330        C331   1.403       .  A
C331        C332   1.403       .  A
C331        H335   1.083       .  S
C332       C1171   1.483       .  S
C332        C333   1.405       .  A
C333        H336   1.083       .  S
C337        C338   1.434       .  A
C337        C342   1.397       .  A
C337        F344   1.357       .  S
C338        C339   1.427       .  A
C339        C340   1.405       .  A
C339        F346   1.342       .  S
C340        C341   1.411       .  A
C340        F345   1.357       .  S
C341        C342   1.407       .  A
C342        F343   1.356       .  S
C347        C348   1.395       .  A
C347        C352   1.398       .  A
C347        F354   1.358       .  S
C348        C349   1.398       .  A
C349        C350   1.402       .  A
C349        F356   1.358       .  S
C350        C351   1.428       .  A
C350        F355   1.354       .  S
C351        C352   1.426       .  A
C352        F353   1.356       .  S
C357        C358   1.424       .  A
C357        C362   1.401       .  A
C357        F364   1.354       .  S
C358        C359   1.428       .  A
C359        C360   1.401       .  A
C359        F366   1.356       .  S
C360        C361   1.399       .  A
C360        F365   1.358       .  S
C361        C362   1.397       .  A
C362        F363   1.358       .  S
C367        C368   1.419       .  A
C367        C372   1.398       .  A
C367        F374   1.357       .  S
C368        C369   1.426       .  A
C369        C370   1.402       .  A
C369        F376   1.355       .  S
C370        C371   1.404       .  A
C370        F375   1.358       .  S
C371        C372   1.406       .  A
C372        F373   1.358       .  S
C377        C378   1.430       .  A
C377        C382   1.401       .  A
C377        F384   1.356       .  S
C378        C379   1.422       .  A
C379        C380   1.401       .  A
C379        F386   1.354       .  S
C380        C381   1.400       .  A
C380        F385   1.358       .  S
C381        C382   1.397       .  A
C382        F383   1.358       .  S
C387        C388   1.401       .  A
C387        C392   1.396       .  A
C387        F394   1.358       .  S
C388        C389   1.405       .  A
C389        C390   1.401       .  A
C389        F396   1.358       .  S
C390        C391   1.423       .  A
C390        F395   1.354       .  S
C391        C392   1.423       .  A
C392        F393   1.357       .  S
C397        C398   1.403       .  A
C397        C402   1.401       .  A
C397        F404   1.358       .  S
C398        C399   1.403       .  A
C399        C400   1.394       .  A
C399        F406   1.358       .  S
C400        C401   1.420       .  A
C400        F405   1.357       .  S
C401        C402   1.425       .  A
C402        F403   1.355       .  S
C407        C408   1.420       .  A
C407        C412   1.400       .  A
C407        F414   1.355       .  S
C408        C409   1.430       .  A
C409        C410   1.400       .  A
C409        F416   1.356   1_554  S
C410        C411   1.396       .  A
C410        F415   1.358       .  S
C411        C412   1.400       .  A
C412        F413   1.358       .  S
C417        C418   1.423       .  A
C417        C422   1.406       .  A
C417        F424   1.358       .  S
C418        C419   1.425       .  A
C419        C420   1.397       .  A
C419        F426   1.354       .  S
C420        C421   1.407       .  A
C420        F425   1.358       .  S
C421        C422   1.408       .  A
C422        F423   1.357       .  S
C427        C428   1.425       .  A
C427        C432   1.396       .  A
C427        F434   1.354       .  S
C428        C429   1.423       .  A
C429        C430   1.403       .  A
C429        F436   1.358       .  S
C430        C431   1.406       .  A
C430        F435   1.358       .  S
C431        C432   1.405       .  A
C432        F433   1.358       .  S
C437        C438   1.426       .  A
C437        C442   1.401       .  A
C437        F444   1.359       .  S
C438        C439   1.430       .  A
C439        C440   1.399       .  A
C439        F446   1.355   1_655  S
C440        C441   1.396       .  A
C440        F445   1.358       .  S
C441        C442   1.399       .  A
C442        F443   1.358       .  S
C447        C448   1.407       .  A
C447        C452   1.399       .  A
C447        F454   1.358       .  S
C448        C449   1.408       .  A
C449        C450   1.396       .  A
C449        F456   1.358       .  S
C450        C451   1.419       .  A
C450        F455   1.359       .  S
C451        C452   1.422       .  A
C452        F453   1.355       .  S
C457        C458   1.425       .  A
C457        C462   1.401       .  A
C457        F464   1.355       .  S
C458        C459   1.420       .  A
C459        C460   1.396       .  A
C459        F466   1.357       .  S
C460        C461   1.404       .  A
C460        F465   1.358       .  S
C461        C462   1.404       .  A
C462        F463   1.358       .  S
C467        C468   1.428       .  A
C467        C472   1.401       .  A
C467        F474   1.356       .  S
C468        C469   1.422       .  A
C469        C470   1.397       .  A
C469        F476   1.354       .  S
C470        C471   1.397       .  A
C470        F475   1.358       .  S
C471        C472   1.397       .  A
C472        F473   1.358       .  S
C477        C478   1.404       .  A
C477        C482   1.397       .  A
C477        F484   1.358       .  S
C478        C479   1.410       .  A
C479        C480   1.402       .  A
C479        F486   1.358       .  S
C480        C481   1.418       .  A
C480        F485   1.357       .  S
C481        C482   1.427       .  A
C482        F483   1.356       .  S
C487        C488   1.419       .  A
C487        C492   1.404       .  A
C487        F494   1.357       .  S
C488        C489   1.426       .  A
C489        C490   1.396       .  A
C489        F496   1.355       .  S
C490        C491   1.404       .  A
C490        F495   1.358       .  S
C491        C492   1.411       .  A
C492        F493   1.358       .  S
C497        C498   1.422       .  A
C497        C502   1.401       .  A
C497        F504   1.358       .  S
C498        C499   1.424       .  A
C499        C500   1.397       .  A
C499        F506   1.354       .  S
C500        C501   1.406       .  A
C500        F505   1.358       .  S
C501        C502   1.407       .  A
C502        F503   1.358       .  S
C507        C508   1.424       .  A
C507        C512   1.395       .  A
C507        F514   1.354       .  S
C508        C509   1.422       .  A
C509        C510   1.402       .  A
C509        F516   1.358       .  S
C510        C511   1.407       .  A
C510        F515   1.358       .  S
C511        C512   1.406       .  A
C512        F513   1.358       .  S
C517        C518   1.396       .  A
C517        C522   1.398       .  A
C517        F524   1.358       .  S
C518        C519   1.398       .  A
C519        C520   1.400       .  A
C519        F526   1.358       .  S
C520        C521   1.423       .  A
C520        F525   1.356       .  S
C521        C522   1.428       .  A
C522        F523   1.356       .  S
C527        C528   1.421       .  A
C527        C532   1.398       .  A
C527        F534   1.358       .  S
C528        C529   1.423       .  A
C529        C530   1.399       .  A
C529        F536   1.355       .  S
C530        C531   1.406       .  A
C530        F535   1.358       .  S
C531        C532   1.404       .  A
C532        F533   1.358       .  S
C537        C538   1.423       .  A
C537        C542   1.401       .  A
C537        F544   1.354       .  S
C538        C539   1.426       .  A
C539        C540   1.400       .  A
C539        F546   1.356       .  S
C540        C541   1.399       .  A
C540        F545   1.358       .  S
C541        C542   1.397       .  A
C542        F543   1.358       .  S
C547        C548   1.425       .  A
C547        C552   1.401       .  A
C547        F554   1.355       .  S
C548        C549   1.422       .  A
C549        C550   1.398       .  A
C549        F556   1.357       .  S
C550        C551   1.402       .  A
C550        F555   1.358       .  S
C551        C552   1.403       .  A
C552        F553   1.358       .  S
C557        C558   1.426       .  A
C557        C562   1.396       .  A
C557        F564   1.355       .  S
C558        C559   1.421       .  A
C559        C560   1.407       .  A
C559        F566   1.357       .  S
C560        C561   1.410       .  A
C560        F565   1.357       .  S
C561        C562   1.407       .  A
C562        F563   1.358       .  S
C567        C568   1.406       .  A
C567        C572   1.396       .  A
C567        F574   1.358       .  S
C568        C569   1.409       .  A
C569        C570   1.404       .  A
C569        F576   1.358       .  S
C570        C571   1.420       .  A
C570        F575   1.357       .  S
C571        C572   1.425       .  A
C572        F573   1.355       .  S
C577        C578   1.429       .  A
C577        C582   1.401       .  A
C577        F584   1.356       .  S
C578        C579   1.422       .  A
C579        C580   1.398       .  A
C579        F586   1.354       .  S
C580        C581   1.397       .  A
C580        F585   1.358       .  S
C581        C582   1.396       .  A
C582        F583   1.358       .  S
C587        C588   1.421       .  A
C587        C592   1.395       .  A
C587        F594   1.357       .  S
C588        C589   1.425       .  A
C589        C590   1.402       .  A
C589        F596   1.355       .  S
C590        C591   1.404       .  A
C590        F595   1.358       .  S
C591        C592   1.403       .  A
C592        F593   1.358       .  S
C597        C598   1.426       .  A
C597        C602   1.400       .  A
C597        F604   1.357       .  S
C598        C599   1.422       .  A
C599        C600   1.394       .  A
C599        F606   1.354       .  S
C600        C601   1.400       .  A
C600        F605   1.359       .  S
C601        C602   1.400       .  A
C602        F603   1.358       .  S
C607        C608   1.430       .  A
C607        C612   1.403       .  A
C607        F614   1.350       .  S
C608        C609   1.435       .  A
C609        C610   1.394       .  A
C609        F616   1.355       .  S
C610        C611   1.399       .  A
C610        F615   1.359       .  S
C611        C612   1.399       .  A
C612        F613   1.358       .  S
C617        C618   1.425       .  A
C617        C622   1.388       .  A
C617        F624   1.357       .  S
C618        C619   1.419       .  A
C619        C620   1.406       .  A
C619        F626   1.356       .  S
C620        C621   1.407       .  A
C620        F625   1.357       .  S
C621        C622   1.402       .  A
C622        F623   1.359       .  S
C627        C628   1.391   1_455  A
C627        C632   1.393       .  A
C627        F634   1.359       .  S
C628        C629   1.399       .  A
C629        C630   1.402       .  A
C629        F636   1.358       .  S
C630        C631   1.433   1_655  A
C630        F635   1.356       .  S
C631        C632   1.430       .  A
C632        F633   1.343       .  S
C637        C638   1.399   1_455  A
C637        C642   1.400       .  A
C637        F644   1.359       .  S
C638        C639   1.394       .  A
C639        C640   1.393       .  A
C639        F646   1.358       .  S
C640        C641   1.427       .  A
C640        F645   1.358       .  S
C641        C642   1.426   1_655  A
C642        F643   1.354       .  S
C647        C648   1.399       .  A
C647        C652   1.390       .  A
C647        F654   1.359       .  S
C648        C649   1.403       .  A
C649        C650   1.403       .  A
C649        F656   1.358       .  S
C650        C651   1.423       .  A
C650        F655   1.343       .  S
C651        C652   1.435       .  A
C652        F653   1.358       .  S
C657        C658   1.391   1_655  A
C657        C662   1.390       .  A
C657        F664   1.359       .  S
C658        C659   1.399       .  A
C659        C660   1.398       .  A
C659        F666   1.359       .  S
C660        C661   1.423       .  A
C660        F665   1.354       .  S
C661        C662   1.429   1_455  A
C662        F663   1.358       .  S
C667        C668   1.395       .  A
C667        C672   1.392       .  A
C667        F674   1.359       .  S
C668        C669   1.402   1_455  A
C669        C670   1.403       .  A
C669        F676   1.358       .  S
C670        C671   1.420   1_655  A
C670        F675   1.356       .  S
C671        C672   1.424       .  A
C672        F673   1.355       .  S
C677        C678   1.398       .  A
C677        C682   1.402       .  A
C677        F684   1.358       .  S
C678        C679   1.398       .  A
C679        C680   1.400       .  A
C679        F686   1.358       .  S
C680        C681   1.422       .  A
C680        F685   1.354       .  S
C681        C682   1.428       .  A
C682        F683   1.356       .  S
C687        C688   1.425       .  A
C687        C692   1.402       .  A
C687        F694   1.355       .  S
C688        C689   1.420       .  A
C689        C690   1.396       .  A
C689        F696   1.357       .  S
C690        C691   1.404       .  A
C690        F695   1.358       .  S
C691        C692   1.404       .  A
C692        F693   1.358       .  S
C697        C698   1.420       .  A
C697        C702   1.403       .  A
C697        F704   1.356       .  S
C698        C699   1.424       .  A
C699        C700   1.394       .  A
C699        F706   1.355       .  S
C700        C701   1.398       .  A
C700        F705   1.359       .  S
C701        C702   1.405       .  A
C702        F703   1.358       .  S
C707        C708   1.396       .  A
C707        C712   1.393       .  A
C707        F714   1.358       .  S
C708        C709   1.402       .  A
C709        C710   1.403       .  A
C709        F716   1.358       .  S
C710        C711   1.425       .  A
C710        F715   1.355       .  S
C711        C712   1.430       .  A
C712        F713   1.360       .  S
C717        C718   1.401       .  A
C717        C722   1.389       .  A
C717        F724   1.359       .  S
C718        C719   1.409       .  A
C719        C720   1.404       .  A
C719        F726   1.357       .  S
C720        C721   1.417       .  A
C720        F725   1.356       .  S
C721        C722   1.426       .  A
C722        F723   1.357       .  S
C727        C728   1.400       .  A
C727        C732   1.402       .  A
C727        F734   1.358       .  S
C728        C729   1.395   1_565  A
C729        C730   1.396       .  A
C729        F736   1.358       .  S
C730        C731   1.428       .  A
C730        F735   1.358       .  S
C731        C732   1.426   1_545  A
C732        F733   1.353       .  S
C737        C738   1.403       .  A
C737        C742   1.392       .  A
C737        F744   1.358       .  S
C738        C739   1.410       .  A
C739        C740   1.405       .  A
C739        F746   1.357   1_565  S
C740        C741   1.417       .  A
C740        F745   1.356       .  S
C741        C742   1.426       .  A
C742        F743   1.357       .  S
C747        C748   1.404       .  A
C747        C752   1.394       .  A
C747        F754   1.358       .  S
C748        C749   1.409       .  A
C749        C750   1.403       .  A
C749        F756   1.357       .  S
C750        C751   1.420       .  A
C750        F755   1.358       .  S
C751        C752   1.427       .  A
C752        F753   1.355       .  S
C757        C758   1.411       .  A
C757        C762   1.405       .  A
C757        F764   1.357       .  S
C758        C759   1.406       .  A
C759        C760   1.397       .  A
C759        F766   1.358       .  S
C760        C761   1.427       .  A
C760        F765   1.354       .  S
C761        C762   1.421       .  A
C762        F763   1.358       .  S
C767        C768   1.422       .  A
C767        C772   1.400       .  A
C767        F774   1.354       .  S
C768        C769   1.430       .  A
C769        C770   1.392       .  A
C769        F776   1.358       .  S
C770        C771   1.392       .  A
C770        F775   1.358       .  S
C771        C772   1.401       .  A
C772        F773   1.358       .  S
C777        C778   1.395       .  A
C777        C782   1.392       .  A
C777        F784   1.359       .  S
C778        C779   1.403       .  A
C779        C780   1.403       .  A
C779        F786   1.358       .  S
C780        C781   1.422       .  A
C780        F785   1.356       .  S
C781        C782   1.424       .  A
C782        F783   1.355       .  S
C787        C788   1.403   1_545  A
C787        C792   1.402       .  A
C787        F794   1.358       .  S
C788        C789   1.396       .  A
C789        C790   1.392       .  A
C789        F796   1.359       .  S
C790        C791   1.424       .  A
C790        F795   1.355       .  S
C791        C792   1.420   1_565  A
C792        F793   1.356       .  S
C797        C798   1.426   1_565  A
C797        C802   1.394       .  A
C797        F804   1.358       .  S
C798        C799   1.428       .  A
C799        C800   1.398       .  A
C799        F806   1.354       .  S
C800        C801   1.397       .  A
C800        F805   1.359       .  S
C801        C802   1.395   1_545  A
C802        F803   1.358       .  S
C807        C808   1.397       .  A
C807        C812   1.397       .  A
C807        F814   1.358       .  S
C808        C809   1.393       .  A
C809        C810   1.394       .  A
C809        F816   1.358       .  S
C810        C811   1.429       .  A
C810        F815   1.358       .  S
C811        C812   1.425       .  A
C812        F813   1.353       .  S
C817        C818   1.409       .  A
C817        C822   1.396       .  A
C817        F824   1.358       .  S
C818        C819   1.414       .  A
C819        C820   1.403       .  A
C819        F826   1.356       .  S
C820        C821   1.420       .  A
C820        F825   1.356       .  S
C821        C822   1.418       .  A
C822        F823   1.351       .  S
C827        C828   1.419       .  A
C827        C832   1.398       .  A
C827        F834   1.355       .  S
C828        C829   1.415       .  A
C829        C830   1.400       .  A
C829        F836   1.357       .  S
C830        C831   1.418       .  A
C830        F835   1.355       .  S
C831        C832   1.415       .  A
C832        F833   1.356       .  S
C837        C838   1.427       .  A
C837        C842   1.399       .  A
C837        F844   1.355       .  S
C838        C839   1.425       .  A
C839        C840   1.403       .  A
C839        F846   1.357       .  S
C840        C841   1.399       .  A
C840        F845   1.358       .  S
C841        C842   1.397       .  A
C842        F843   1.358       .  S
C847        C848   1.424       .  A
C847        C852   1.400       .  A
C847        F854   1.354       .  S
C848        C849   1.422       .  A
C849        C850   1.401       .  A
C849        F856   1.358       .  S
C850        C851   1.406       .  A
C850        F855   1.358       .  S
C851        C852   1.405       .  A
C852        F853   1.358       .  S
C857        C858   1.393       .  A
C857        C862   1.396       .  A
C857        F864   1.358       .  S
C858        C859   1.393       .  A
C859        C860   1.396       .  A
C859        F866   1.358       .  S
C860        C861   1.428       .  A
C860        F865   1.355       .  S
C861        C862   1.427       .  A
C862        F863   1.354       .  S
C867        C868   1.402   1_565  A
C867        C872   1.402       .  A
C867        F874   1.358       .  S
C868        C869   1.396       .  A
C869        C870   1.392       .  A
C869        F876   1.358       .  S
C870        C871   1.422       .  A
C870        F875   1.356       .  S
C871        C872   1.422   1_545  A
C872        F873   1.356       .  S
C877        C878   1.395   1_545  A
C877        C882   1.395       .  A
C877        F884   1.358       .  S
C878        C879   1.396       .  A
C879        C880   1.397       .  A
C879        F886   1.359       .  S
C880        C881   1.427   1_565  A
C880        F885   1.354       .  S
C881        C882   1.427       .  A
C882        F883   1.358       .  S
C887        C888   1.401       .  A
C887        C892   1.387       .  A
C887        F894   1.359       .  S
C888        C889   1.410       .  A
C889        C890   1.407       .  A
C889        F896   1.357       .  S
C890        C891   1.420       .  A
C890        F895   1.357       .  S
C891        C892   1.426       .  A
C892        F893   1.354       .  S
C897        C898   1.432       .  A
C897        C902   1.398       .  A
C897        F904   1.354       .  S
C898        C899   1.427       .  A
C899        C900   1.402       .  A
C899        F906   1.359       .  S
C900        C901   1.398       .  A
C900        F905   1.358       .  S
C901        C902   1.394       .  A
C902        F903   1.358       .  S
C907        C908   1.406       .  A
C907        C912   1.398       .  A
C907        F914   1.358       .  S
C908        C909   1.405       .  A
C909        C910   1.393       .  A
C909        F916   1.358       .  S
C910        C911   1.423       .  A
C910        F915   1.355       .  S
C911        C912   1.421       .  A
C912        F913   1.359       .  S
C917        C918   1.392       .  A
C917        C922   1.394       .  A
C917        F924   1.358       .  S
C918        C919   1.396       .  A
C919        C920   1.398       .  A
C919        F926   1.359       .  S
C920        C921   1.426       .  A
C920        F925   1.355       .  S
C921        C922   1.426       .  A
C922        F923   1.354       .  S
C927        C928   1.423       .  A
C927        C932   1.393       .  A
C927        F934   1.355       .  S
C928        C929   1.420   1_554  A
C929        C930   1.404       .  A
C929        F936   1.356       .  S
C930        C931   1.404   1_556  A
C930        F935   1.358       .  S
C931        C932   1.396       .  A
C932        F933   1.358       .  S
C937        C938   1.410       .  A
C937        C942   1.402       .  A
C937        F944   1.358   1_554  S
C938        C939   1.401       .  A
C939        C940   1.392       .  A
C939        F946   1.358       .  S
C940        C941   1.426       .  A
C940        F945   1.357       .  S
C941        C942   1.416       .  A
C942        F943   1.356   1_554  S
C947        C948   1.393       .  A
C947        C952   1.398       .  A
C947        F954   1.359       .  S
C948        C949   1.396       .  A
C949        C950   1.402       .  A
C949        F956   1.358       .  S
C950        C951   1.427       .  A
C950        F955   1.353       .  S
C951        C952   1.430       .  A
C952        F953   1.359       .  S
C957        C958   1.398       .  A
C957        C962   1.402       .  A
C957        F964   1.358       .  S
C958        C959   1.391       .  A
C959        C960   1.388       .  A
C959        F966   1.360       .  S
C960        C961   1.430       .  A
C960        F965   1.342       .  S
C961        C962   1.433       .  A
C962        F963   1.357       .  S
C967        C968   1.397       .  A
C967        C972   1.399       .  A
C967        F974   1.359       .  S
C968        C969   1.395   1_545  A
C969        C970   1.396       .  A
C969        F976   1.358       .  S
C970        C971   1.427   1_565  A
C970        F975   1.358       .  S
C971        C972   1.428       .  A
C972        F973   1.353       .  S
C977        C978   1.408   1_565  A
C977        C982   1.403       .  A
C977        F984   1.357       .  S
C978        C979   1.401       .  A
C979        C980   1.388       .  A
C979        F986   1.359       .  S
C980        C981   1.426       .  A
C980        F985   1.356       .  S
C981        C982   1.418   1_545  A
C982        F983   1.356       .  S
C987        C988   1.430       .  A
C987        C992   1.396       .  A
C987        F994   1.352       .  S
C988        C989   1.426       .  A
C989        C990   1.405       .  A
C989        F996   1.359       .  S
C990        C991   1.406       .  A
C990        F995   1.357       .  S
C991        C992   1.403       .  A
C992        F993   1.359       .  S
C997        C998   1.432       .  A
C997       C1002   1.394       .  A
C997       F1004   1.348       .  S
C998        C999   1.431       .  A
C999       C1000   1.405       .  A
C999       F1006   1.358       .  S
C1000      C1001   1.401       .  A
C1000      F1005   1.358       .  S
C1001      C1002   1.394       .  A
C1002      F1003   1.359       .  S
C1007      C1008   1.428       .  A
C1007      C1012   1.400       .  A
C1007      F1014   1.350       .  S
C1008      C1009   1.434       .  A
C1009      C1010   1.390       .  A
C1009      F1016   1.360       .  S
C1010      C1011   1.393       .  A
C1010      F1015   1.359       .  S
C1011      C1012   1.398       .  A
C1012      F1013   1.359       .  S
C1017      C1018   1.396       .  A
C1017      C1022   1.397       .  A
C1017      F1024   1.358       .  S
C1018      C1019   1.400       .  A
C1019      C1020   1.400       .  A
C1019      F1026   1.358       .  S
C1020      C1021   1.422       .  A
C1020      F1025   1.355       .  S
C1021      C1022   1.427       .  A
C1022      F1023   1.356       .  S
C1027      C1028   1.394       .  A
C1027      C1032   1.396       .  A
C1027      F1034   1.358       .  S
C1028      C1029   1.401       .  A
C1029      C1030   1.397       .  A
C1029      F1036   1.359       .  S
C1030      C1031   1.423       .  A
C1030      F1035   1.352       .  S
C1031      C1032   1.432       .  A
C1032      F1033   1.359       .  S
C1037      C1038   1.405   1_556  A
C1037      C1042   1.402       .  A
C1037      F1044   1.358       .  S
C1038      C1039   1.393       .  A
C1039      C1040   1.392       .  A
C1039      F1046   1.358       .  S
C1040      C1041   1.426       .  A
C1040      F1045   1.355       .  S
C1041      C1042   1.419   1_554  A
C1042      F1043   1.355       .  S
C1047      C1048   1.397       .  A
C1047      C1052   1.396       .  A
C1047      F1054   1.358       .  S
C1048      C1049   1.403   1_556  A
C1049      C1050   1.397       .  A
C1049      F1056   1.358       .  S
C1050      C1051   1.420   1_554  A
C1050      F1055   1.356       .  S
C1051      C1052   1.427       .  A
C1052      F1053   1.359       .  S
C1057      C1058   1.397       .  A
C1057      C1062   1.401       .  A
C1057      F1064   1.358       .  S
C1058      C1059   1.399       .  A
C1059      C1060   1.399       .  A
C1059      F1066   1.358       .  S
C1060      C1061   1.426       .  A
C1060      F1065   1.356       .  S
C1061      C1062   1.425       .  A
C1062      F1063   1.354       .  S
C1067      C1068   1.421       .  A
C1067      C1072   1.400       .  A
C1067      F1074   1.357       .  S
C1068      C1069   1.425       .  A
C1069      C1070   1.406       .  A
C1069      F1076   1.355       .  S
C1070      C1071   1.407       .  A
C1070      F1075   1.358       .  S
C1071      C1072   1.407       .  A
C1072      F1073   1.358       .  S
C1077      C1078   1.421       .  A
C1077      C1082   1.395       .  A
C1077      F1084   1.357       .  S
C1078      C1079   1.426       .  A
C1079      C1080   1.402       .  A
C1079      F1086   1.355       .  S
C1080      C1081   1.403       .  A
C1080      F1085   1.358       .  S
C1081      C1082   1.402       .  A
C1082      F1083   1.358       .  S
C1087      C1088   1.427       .  A
C1087      C1092   1.401       .  A
C1087      F1094   1.356       .  S
C1088      C1089   1.423       .  A
C1089      C1090   1.402       .  A
C1089      F1096   1.355       .  S
C1090      C1091   1.398       .  A
C1090      F1095   1.358       .  S
C1091      C1092   1.399       .  A
C1092      F1093   1.358       .  S
C1097      C1098   1.398       .  A
C1097      C1102   1.394       .  A
C1097      F1104   1.358       .  S
C1098      C1099   1.403       .  A
C1099      C1100   1.403       .  A
C1099      F1106   1.358       .  S
C1100      C1101   1.421       .  A
C1100      F1105   1.356       .  S
C1101      C1102   1.422       .  A
C1102      F1103   1.355       .  S
C1107      C1108   1.410       .  A
C1107      C1112   1.401       .  A
C1107      F1114   1.358   1_655  S
C1108      C1109   1.400       .  A
C1109      C1110   1.390       .  A
C1109      F1116   1.359       .  S
C1110      C1111   1.428       .  A
C1110      F1115   1.355       .  S
C1111      C1112   1.416       .  A
C1112      F1113   1.357   1_655  S
C1117      C1118   1.425       .  A
C1117      C1122   1.402       .  A
C1117      F1124   1.354       .  S
C1118      C1119   1.429   1_655  A
C1119      C1120   1.394       .  A
C1119      F1126   1.358       .  S
C1120      C1121   1.393       .  A
C1120      F1125   1.358       .  S
C1121      C1122   1.400   1_455  A
C1122      F1123   1.358       .  S
C1127      C1128   1.416       .  A
C1127      C1132   1.402       .  A
C1127      F1134   1.356       .  S
C1128      C1129   1.426       .  A
C1129      C1130   1.391       .  A
C1129      F1136   1.357       .  S
C1130      C1131   1.401       .  A
C1130      F1135   1.359       .  S
C1131      C1132   1.409       .  A
C1132      F1133   1.358       .  S
C1137      C1138   1.429       .  A
C1137      C1142   1.393       .  A
C1137      F1144   1.358       .  S
C1138      C1139   1.422   1_455  A
C1139      C1140   1.396       .  A
C1139      F1146   1.354       .  S
C1140      C1141   1.399   1_655  A
C1140      F1145   1.357       .  S
C1141      C1142   1.392       .  A
C1142      F1143   1.358       .  S
C1147      C1148   1.397   1_655  A
C1147      C1152   1.402       .  A
C1147      F1154   1.358       .  S
C1148      C1149   1.393       .  A
C1149      C1150   1.395       .  A
C1149      F1156   1.357       .  S
C1150      C1151   1.423       .  A
C1150      F1155   1.359       .  S
C1151      C1152   1.428   1_455  A
C1152      F1153   1.354       .  S
C1157      C1158   1.424       .  A
C1157      C1162   1.395       .  A
C1157      F1164   1.356       .  S
C1158      C1159   1.424       .  A
C1159      C1160   1.399       .  A
C1159      F1166   1.355       .  S
C1160      C1161   1.396       .  A
C1160      F1165   1.358       .  S
C1161      C1162   1.398       .  A
C1162      F1163   1.359       .  S
C1167      C1168   1.421       .  A
C1167      C1172   1.394       .  A
C1167      F1174   1.356       .  S
C1168      C1169   1.425       .  A
C1169      C1170   1.399       .  A
C1169      F1176   1.355       .  S
C1170      C1171   1.402       .  A
C1170      F1175   1.358       .  S
C1171      C1172   1.402       .  A
C1172      F1173   1.358       .  S
C1177      C1178   1.421       .  A
C1177      C1182   1.400       .  A
C1177      F1184   1.356       .  S
C1178      C1179   1.420       .  A
C1179      C1180   1.389       .  A
C1179      F1186   1.355       .  S
C1180      C1181   1.397       .  A
C1180      F1185   1.357       .  S
C1181      C1182   1.401       .  A
C1182      F1183   1.358       .  S
C1187      C1188   1.403       .  A
C1187      C1192   1.401       .  A
C1187      F1194   1.358       .  S
C1188      C1189   1.395       .  A
C1189      C1190   1.391       .  A
C1189      F1196   1.359       .  S
C1190      C1191   1.424       .  A
C1190      F1195   1.355       .  S
C1191      C1192   1.420       .  A
C1192      F1193   1.356       .  S
C1197      C1198   1.409       .  A
C1197      C1202   1.399       .  A
C1197      F1204   1.358       .  S
C1198      C1199   1.401       .  A
C1199      C1200   1.391       .  A
C1199      F1206   1.359       .  S
C1200      C1201   1.426       .  A
C1200      F1205   1.356       .  S
C1201      C1202   1.416       .  A
C1202      F1203   1.356       .  S
C1207      C1208   1.398       .  A
C1207      C1212   1.385       .  A
C1207      F1214   1.359       .  S
C1208      C1209   1.410       .  A
C1209      C1210   1.410       .  A
C1209      F1216   1.357       .  S
C1210      C1211   1.420       .  A
C1210      F1215   1.359       .  S
C1211      C1212   1.434       .  A
C1212      F1213   1.357       .  S
C1217      C1218   1.401       .  A
C1217      C1222   1.388       .  A
C1217      F1224   1.359       .  S
C1218      C1219   1.408       .  A
C1219      C1220   1.402       .  A
C1219      F1226   1.358   1_556  S
C1220      C1221   1.417       .  A
C1220      F1225   1.357   1_556  S
C1221      C1222   1.425       .  A
C1222      F1223   1.357       .  S
C1227      C1228   1.421       .  A
C1227      C1232   1.403       .  A
C1227      F1234   1.358       .  S
C1228      C1229   1.426       .  A
C1229      C1230   1.395       .  A
C1229      F1236   1.355       .  S
C1230      C1231   1.404       .  A
C1230      F1235   1.358       .  S
C1231      C1232   1.408       .  A
C1232      F1233   1.357       .  S
C1237      C1238   1.426       .  A
C1237      C1242   1.396       .  A
C1237      F1244   1.354       .  S
C1238      C1239   1.421       .  A
C1239      C1240   1.403       .  A
C1239      F1246   1.358       .  S
C1240      C1241   1.410       .  A
C1240      F1245   1.357       .  S
C1241      C1242   1.406       .  A
C1242      F1243   1.358       .  S
C1247      C1248   1.429       .  A
C1247      C1252   1.394       .  A
C1247      F1254   1.358       .  S
C1248      C1249   1.426       .  A
C1249      C1250   1.396       .  A
C1249      F1256   1.353       .  S
C1250      C1251   1.398       .  A
C1250      F1255   1.358       .  S
C1251      C1252   1.394       .  A
C1252      F1253   1.358       .  S
C1257      C1258   1.400       .  A
C1257      C1262   1.391       .  A
C1257      F1264   1.359       .  S
C1258      C1259   1.410       .  A
C1259      C1260   1.404       .  A
C1259      F1266   1.358       .  S
C1260      C1261   1.417       .  A
C1260      F1265   1.356       .  S
C1261      C1262   1.428       .  A
C1262      F1263   1.356       .  S
C1267      C1268   1.400       .  A
C1267      C1272   1.389       .  A
C1267      F1274   1.359       .  S
C1268      C1269   1.409   1_556  A
C1269      C1270   1.405       .  A
C1269      F1276   1.357       .  S
C1270      C1271   1.417   1_554  A
C1270      F1275   1.356       .  S
C1271      C1272   1.427       .  A
C1272      F1273   1.357       .  S
C1277      C1278   1.421   1_554  A
C1277      C1282   1.403       .  A
C1277      F1284   1.355       .  S
C1278      C1279   1.423       .  A
C1279      C1280   1.391       .  A
C1279      F1286   1.355       .  S
C1280      C1281   1.396       .  A
C1280      F1285   1.359       .  S
C1281      C1282   1.403   1_556  A
C1282      F1283   1.358       .  S
C1287      C1288   1.399       .  A
C1287      C1292   1.400       .  A
C1287      F1294   1.359       .  S
C1288      C1289   1.393       .  A
C1289      C1290   1.392       .  A
C1289      F1296   1.358       .  S
C1290      C1291   1.428       .  A
C1290      F1295   1.358       .  S
C1291      C1292   1.425       .  A
C1292      F1293   1.353       .  S
