geometry optimzed in LAMMPS
_audit_creation_date              2020-11-30 
_audit_creation_method            'lammps2cif' 
_symmetry_space_group_name_H-M    'P1' 
_symmetry_Int_Tables_number       1 
_symmetry_cell_setting            triclinic 
loop_ 
_symmetry_equiv_pos_as_xyz 
  x,y,z 
_cell_length_a                    53.27081851 
_cell_length_b                    53.181670675657266 
_cell_length_c                    53.56500835594279 
_cell_angle_alpha                 89.98569002544728 
_cell_angle_beta                  89.76797513425107 
_cell_angle_gamma                 89.93929880568098 
loop_ 
_atom_site_label 
_atom_site_type_symbol 
_atom_site_fract_x 
_atom_site_fract_y 
_atom_site_fract_z 
_atom_site_charge 
O1          O  0.21693240  0.71721199  0.74803792    -0.80300
O2          O  0.21988472  0.80047003  0.75939833    -0.80300
O3          O  0.24747828  0.73887690  0.81368473    -0.80300
O4          O  0.23929499  0.77979057  0.70639044    -0.80300
O5          O  0.21892741  0.76617273  0.80014969    -0.80400
O6          O  0.21584163  0.74545733  0.70459587    -0.80300
O7          O  0.24375136  0.79854385  0.72491173    -0.80300
O8          O  0.24474932  0.70519564  0.77640933    -0.80300
C9          C  0.22509073  0.70125906  0.76383768     1.09400
C10         C  0.22705874  0.80991929  0.73881775     1.09300
C11         C  0.22619471  0.74957376  0.81562472     1.09400
C12         C  0.22317146  0.76583605  0.69435624     1.09300
O13         O  0.26003498  0.73487262  0.70614625    -0.80300
O14         O  0.26834738  0.78211862  0.81225662    -0.80400
O15         O  0.29065566  0.71986793  0.75645628    -0.80300
O16         O  0.28855783  0.80083541  0.73745113    -0.80300
O17         O  0.26882461  0.81350151  0.77202722    -0.80400
O18         O  0.26011530  0.71911487  0.72757188    -0.80300
O19         O  0.28305997  0.76836908  0.69697420    -0.80300
O20         O  0.29567379  0.75525780  0.79629772    -0.80300
Co21       Co  0.23484755  0.74785211  0.73477216     1.51500
Co22       Co  0.24412872  0.78876738  0.78447485     1.51700
Co23       Co  0.26941942  0.73176591  0.78415367     1.51600
Co24       Co  0.26937549  0.76925718  0.73025693     1.51500
O25         O  0.25500085  0.75970838  0.76288467    -1.42200
C26         C  0.27472866  0.74685913  0.69046365     1.09300
C27         C  0.28912783  0.77041809  0.81343461     1.09400
C28         C  0.28000617  0.70941109  0.73798682     1.09300
C29         C  0.28471572  0.81689835  0.75469992     1.09300
O30         O  0.72819044  0.21663258  0.69526931    -0.80300
O31         O  0.78050491  0.20613697  0.81152461    -0.80300
O32         O  0.79702074  0.19980567  0.73788707    -0.80300
O33         O  0.70521545  0.19793435  0.75973157    -0.80300
O34         O  0.80947178  0.21205182  0.77320876    -0.80400
O35         O  0.69048849  0.21273696  0.72451625    -0.80300
O36         O  0.74411012  0.19497042  0.79663120    -0.80300
O37         O  0.76302446  0.20082173  0.70536171    -0.80300
C38         C  0.74754085  0.20521725  0.68851327     1.09400
C39         C  0.75922096  0.19632665  0.81539141     1.09300
C40         C  0.81490653  0.20313284  0.75233573     1.09400
C41         C  0.68649574  0.20137907  0.74488388     1.09300
O42         O  0.70849574  0.25700632  0.73170619    -0.80300
O43         O  0.79331661  0.25152116  0.78003971    -0.80400
O44         O  0.76458506  0.25597402  0.70159054    -0.80300
O45         O  0.73651868  0.24805103  0.80678254    -0.80300
O46         O  0.77613159  0.25179744  0.79790909    -0.80400
O47         O  0.72420399  0.25575337  0.71281448    -0.80300
O48         O  0.70052807  0.25143773  0.77136951    -0.80300
O49         O  0.80168097  0.25483996  0.73908388    -0.80300
Co50       Co  0.72382674  0.22288031  0.73202473     1.51500
Co51       Co  0.77294664  0.21942232  0.77923640     1.51700
Co52       Co  0.77975656  0.22869180  0.72299697     1.51600
Co53       Co  0.72476164  0.22408061  0.78029164     1.51500
O54         O  0.75334895  0.23316970  0.75121778    -1.42200
C55         C  0.69647142  0.26321224  0.75131968     1.09300
C56         C  0.80616442  0.26078889  0.76173520     1.09400
C57         C  0.74219035  0.26392737  0.69873451     1.09300
C58         C  0.75760323  0.25744176  0.81190900     1.09300
O59         O  0.69146505  0.72843842  0.23873594    -0.80300
O60         O  0.79051966  0.74534800  0.20173033    -0.80300
O61         O  0.73360485  0.80005556  0.24115659    -0.80300
O62         O  0.76024492  0.69762459  0.21895783    -0.80300
O63         O  0.75448299  0.78701714  0.20791868    -0.80400
O64         O  0.72324355  0.69004731  0.23271763    -0.80300
O65         O  0.80189370  0.71658759  0.22895923    -0.80300
O66         O  0.70453434  0.76531076  0.22933800    -0.80300
C67         C  0.68828924  0.74865214  0.22710629     1.09400
C68         C  0.80478450  0.72702783  0.20789727     1.09300
C69         C  0.73955704  0.80277660  0.21837848     1.09400
C70         C  0.74040867  0.68525756  0.21747608     1.09300
O71         O  0.74780803  0.69999923  0.27999420    -0.80300
O72         O  0.77555018  0.79398451  0.25644039    -0.80400
O73         O  0.70065839  0.77944081  0.27796773    -0.80300
O74         O  0.78772306  0.73212119  0.27844458    -0.80300
O75         O  0.80750678  0.75606612  0.25139437    -0.80400
O76         O  0.71435634  0.74173054  0.28613657    -0.80300
O77         O  0.78084836  0.68278384  0.26255400    -0.80300
O78         O  0.75269444  0.77491615  0.28473109    -0.80300
Co79       Co  0.72212318  0.71768442  0.25762739     1.51500
Co80       Co  0.77943261  0.76852572  0.22948416     1.51700
Co81       Co  0.72827435  0.76713984  0.25759966     1.51600
Co82       Co  0.77114209  0.71493846  0.24959893     1.51500
O83         O  0.75074606  0.74375581  0.24026052    -1.42200
C84         C  0.76095792  0.68009595  0.27543830     1.09300
C85         C  0.76884996  0.79149135  0.27899898     1.09400
C86         C  0.69637080  0.75784483  0.28740351     1.09300
C87         C  0.80671933  0.74526042  0.27252382     1.09300
C88         C  0.50460014  0.01531625  0.02510198     0.02100
C89         C  0.48586251  0.99650714  0.02554336     0.02100
C90         C  0.46619791  0.99686790  0.00769502     0.02100
C91         C  0.46504607  0.01633032  0.98960100     0.02100
C92         C  0.48297886  0.03607877  0.99027140     0.02100
C93         C  0.50250775  0.03581821  0.00829286     0.02100
C94         C  0.67813446  0.97418939  0.16932613     0.03000
C95         C  0.68514815  0.99419857  0.18501058    -0.13200
C96         C  0.67589460  0.01850762  0.18068664     0.00500
C97         C  0.65948249  0.02280688  0.16068682    -0.11700
C98         C  0.65017907  0.00277053  0.14636951     0.02900
C99         C  0.66013197  0.97863695  0.15067089    -0.11100
H100        H  0.69764973  0.99094694  0.20057224     0.08500
H101        H  0.65386856  0.04190994  0.15656803     0.06100
H102        H  0.65374807  0.96299751  0.13950630     0.05900
C103        C  0.68312560  0.17609663  0.98697164     0.03000
C104        C  0.66149363  0.16097003  0.98676904    -0.13200
C105        C  0.64757845  0.15692374  0.00860697     0.00500
C106        C  0.65476229  0.16871528  0.03077401    -0.11700
C107        C  0.67616635  0.18395405  0.03146453     0.02900
C108        C  0.69055243  0.18747708  0.00959415    -0.11100
H109        H  0.65565342  0.15193927  0.96960502     0.08500
H110        H  0.64383312  0.16576208  0.04764370     0.06100
H111        H  0.70737491  0.19887455  0.01022314     0.05900
C112        C  0.32151074  0.98968605  0.81106420     0.03000
C113        C  0.30807005  0.01218891  0.80753905    -0.13200
C114        C  0.31350378  0.03355416  0.82208399     0.00500
C115        C  0.33277383  0.03222184  0.83990027    -0.11700
C116        C  0.34643223  0.00991533  0.84341272     0.02900
C117        C  0.34059923  0.98871916  0.82902766    -0.11100
H118        H  0.29347006  0.01306456  0.79353675     0.08500
H119        H  0.33732044  0.04867191  0.85092480     0.06100
H120        H  0.35095737  0.97138967  0.83181264     0.05900
C121        C  0.51502397  0.18558541  0.82058064     0.03000
C122        C  0.49483780  0.20200391  0.81593365    -0.13200
C123        C  0.47253719  0.20004659  0.83003823     0.00500
C124        C  0.47095908  0.18215873  0.84922473    -0.11700
C125        C  0.49106914  0.16587118  0.85398510     0.02900
C126        C  0.51272217  0.16725614  0.83917494    -0.11100
H127        H  0.49637937  0.21601640  0.80132212     0.08500
H128        H  0.45396100  0.18077931  0.86033700     0.06100
H129        H  0.52814082  0.15438407  0.84254212     0.05900
C130        C  0.52262192  0.82020845  0.16990667     0.03000
C131        C  0.50030323  0.81435410  0.18288686    -0.13200
C132        C  0.47734758  0.82582315  0.17628280     0.00500
C133        C  0.47703682  0.84267394  0.15606827    -0.11700
C134        C  0.49914713  0.84903822  0.14326243     0.02900
C135        C  0.52191989  0.83789979  0.15045725    -0.11100
H136        H  0.50089634  0.80101996  0.19816647     0.08500
H137        H  0.45947696  0.85113562  0.15036279     0.06100
H138        H  0.53908955  0.84270859  0.14064115     0.05900
C139        C  0.31980731  0.82250121  0.98815725     0.03000
C140        C  0.30716658  0.81504843  0.01005959    -0.13200
C141        C  0.31396695  0.82556566  0.03323151     0.00500
C142        C  0.33469469  0.84178289  0.03438962    -0.11700
C143        C  0.34687564  0.85001269  0.01256234     0.02900
C144        C  0.33825405  0.84112186  0.98949432    -0.11100
H145        H  0.29225299  0.80125777  0.00907671     0.08500
H146        H  0.34106150  0.84812105  0.05249654     0.06100
H147        H  0.34619625  0.84824837  0.97227086     0.05900
C148        C  0.01108059  0.51282663  0.99487214     0.02100
C149        C  0.00648984  0.49549888  0.97530783     0.02100
C150        C  0.98682861  0.47773500  0.97769302     0.02100
C151        C  0.97023387  0.47861851  0.99831683     0.02100
C152        C  0.97409773  0.49667791  0.01722331     0.02100
C153        C  0.99474824  0.51336969  0.01588945     0.02100
C154        C  0.18077933  0.67040811  0.97705666     0.03000
C155        C  0.16097092  0.65314403  0.97592644    -0.13200
C156        C  0.15192380  0.64135953  0.99765743     0.00500
C157        C  0.16458949  0.64583930  0.02024569    -0.11700
C158        C  0.18628260  0.66081756  0.02104177     0.02900
C159        C  0.19391277  0.67371500  0.99943750    -0.11100
H160        H  0.15249707  0.64930914  0.95801343     0.08500
H161        H  0.15768648  0.63763799  0.03745415     0.06100
H162        H  0.20976489  0.68644804  0.00006589     0.05900
C163        C  0.16469719  0.52795434  0.81277454     0.03000
C164        C  0.17734840  0.50557156  0.80600752    -0.13200
C165        C  0.16937796  0.48218229  0.81569096     0.00500
C166        C  0.14895378  0.48145845  0.83229831    -0.11700
C167        C  0.13686071  0.50364130  0.83965881     0.02900
C168        C  0.14462776  0.52671375  0.82980123    -0.11100
H169        H  0.19325022  0.50635025  0.79336514     0.08500
H170        H  0.14295130  0.46364804  0.84015139     0.06100
H171        H  0.13508756  0.54379726  0.83552765     0.05900
C172        C  0.98166901  0.67233344  0.17149998     0.03000
C173        C  0.98836229  0.66014636  0.14918871    -0.13200
C174        C  0.01093283  0.64699608  0.14715423     0.00500
C175        C  0.02885384  0.64902093  0.16597319    -0.11700
C176        C  0.02415483  0.66382275  0.18720300     0.02900
C177        C  0.00010442  0.67478718  0.19034894    -0.11100
H178        H  0.97506521  0.65899537  0.13398815     0.08500
H179        H  0.04652709  0.63908080  0.16398726     0.06100
H180        H  0.99574858  0.68468772  0.20748687     0.05900
C181        C  0.80982414  0.47814887  0.17268498     0.03000
C182        C  0.83077843  0.48026681  0.15704702    -0.13200
C183        C  0.83580033  0.50268308  0.14436414     0.00500
C184        C  0.81969603  0.52331422  0.14751711    -0.11700
C185        C  0.79899055  0.52163615  0.16370494     0.02900
C186        C  0.79417846  0.49907211  0.17648007    -0.11100
H187        H  0.84317417  0.46425665  0.15459200     0.08500
H188        H  0.82333601  0.54068018  0.13754985     0.06100
H189        H  0.77818721  0.49771377  0.18897603     0.05900
C190        C  0.01988996  0.32160408  0.81695695     0.03000
C191        C  0.01660902  0.33899696  0.83640616    -0.13200
C192        C  0.99286535  0.34881106  0.84194446     0.00500
C193        C  0.97228354  0.34160766  0.82757206    -0.11700
C194        C  0.97493530  0.32403860  0.80822208     0.02900
C195        C  0.99885671  0.31403085  0.80299677    -0.11100
H196        H  0.03262916  0.34506386  0.84725781     0.08500
H197        H  0.95398785  0.34952009  0.83175480     0.06100
H198        H  0.00109768  0.30045217  0.78810937     0.05900
C199        C  0.81835342  0.30736718  0.02882333     0.03000
C200        C  0.83483855  0.32798456  0.02815404    -0.13200
C201        C  0.83979903  0.34062914  0.00571167     0.00500
C202        C  0.82810370  0.33273264  0.98370703    -0.11700
C203        C  0.81181148  0.31200309  0.98380094     0.02900
C204        C  0.80678672  0.29938824  0.00649038    -0.11100
H205        H  0.84406189  0.33405152  0.04511905     0.08500
H206        H  0.83227864  0.34229056  0.96629939     0.06100
H207        H  0.79439903  0.28325033  0.00667614     0.05900
C208        C  0.51771872  0.48740006  0.53216658     0.02100
C209        C  0.53594163  0.48576143  0.51275031     0.02100
C210        C  0.53652634  0.50435391  0.49365670     0.02100
C211        C  0.51922809  0.52479791  0.49441631     0.02100
C212        C  0.50028658  0.52567187  0.51300107     0.02100
C213        C  0.49956291  0.50689914  0.53170457     0.02100
C214        C  0.49189567  0.30568675  0.67256605     0.03000
C215        C  0.49075868  0.32726567  0.65735592    -0.13200
C216        C  0.51147390  0.34343337  0.65502922     0.00500
C217        C  0.53339244  0.33805685  0.66841399    -0.11700
C218        C  0.53498027  0.31659752  0.68342109     0.02900
C219        C  0.51430882  0.30039467  0.68539135    -0.11100
H220        H  0.47363747  0.33166967  0.64747843     0.08500
H221        H  0.54944480  0.35049858  0.66697744     0.06100
H222        H  0.51564209  0.28386845  0.69714869     0.05900
C223        C  0.31667395  0.66519060  0.47637050     0.03000
C224        C  0.30760990  0.67617302  0.49852113    -0.13200
C225        C  0.31838352  0.66984927  0.52168339     0.00500
C226        C  0.33799596  0.65206802  0.52219166    -0.11700
C227        C  0.34875908  0.64241736  0.50007542     0.02900
C228        C  0.33820140  0.64991881  0.47720004    -0.11100
H229        H  0.29226263  0.68950198  0.49765534     0.08500
H230        H  0.34511432  0.64610115  0.54013989     0.06100
H231        H  0.34660456  0.64405169  0.45974986     0.05900
C232        C  0.67150624  0.46836830  0.31270794     0.03000
C233        C  0.65304019  0.47184472  0.33108509    -0.13200
C234        C  0.64602651  0.49597627  0.33912819     0.00500
C235        C  0.65940115  0.51671157  0.32966755    -0.11700
C236        C  0.67989724  0.51339328  0.31338595     0.02900
C237        C  0.68520607  0.48924651  0.30401498    -0.11100
H238        H  0.64441245  0.45540497  0.33935492     0.08500
H239        H  0.65456180  0.53558123  0.33557362     0.06100
H240        H  0.70031871  0.48662138  0.29067303     0.05900
C241        C  0.48223314  0.67345666  0.32549714     0.03000
C242        C  0.50267139  0.68854037  0.31800574    -0.13200
C243        C  0.52617299  0.68588976  0.32975150     0.00500
C244        C  0.52906166  0.66804487  0.34881775    -0.11700
C245        C  0.50897487  0.65257937  0.35599442     0.02900
C246        C  0.48560180  0.65552153  0.34438543    -0.11100
H247        H  0.50032394  0.70218205  0.30317422     0.08500
H248        H  0.54708777  0.66603965  0.35793093     0.06100
H249        H  0.46997169  0.64372683  0.34998713     0.05900
C250        C  0.32355931  0.49005822  0.67475456     0.03000
C251        C  0.34498980  0.49035947  0.65950210    -0.13200
C252        C  0.35758721  0.51293604  0.65471063     0.00500
C253        C  0.34847823  0.53536629  0.66482335    -0.11700
C254        C  0.32723995  0.53540542  0.68025892     0.02900
C255        C  0.31481561  0.51262887  0.68548731    -0.11100
H256        H  0.35181412  0.47300965  0.65127912     0.08500
H257        H  0.35810212  0.55288588  0.66083244     0.06100
H258        H  0.29832345  0.51252882  0.69738465     0.05900
C259        C  0.67123392  0.30152930  0.48490687     0.03000
C260        C  0.65046292  0.31776765  0.48556106    -0.13200
C261        C  0.64414853  0.33091056  0.50733677     0.00500
C262        C  0.65785947  0.32661818  0.52920753    -0.11700
C263        C  0.67791940  0.30943657  0.52947302     0.02900
C264        C  0.68479297  0.29720298  0.50708182    -0.11100
H265        H  0.63958533  0.32086694  0.46878188     0.08500
H266        H  0.65303296  0.33687740  0.54603975     0.06100
H267        H  0.70085885  0.28470099  0.50683969     0.05900
C268        C  0.00973592  0.01695989  0.51206309     0.02100
C269        C  0.02970606  0.99956170  0.50791384     0.02100
C270        C  0.02707064  0.98040336  0.48958319     0.02100
C271        C  0.00504244  0.97918381  0.47482030     0.02100
C272        C  0.98551197  0.99682101  0.47863626     0.02100
C273        C  0.98761294  0.01543870  0.49744033     0.02100
C274        C  0.98794704  0.16821104  0.68154982     0.03000
C275        C  0.99062625  0.14645611  0.66671431    -0.13200
C276        C  0.01372790  0.14011019  0.65561305     0.00500
C277        C  0.03435112  0.15590008  0.65970046    -0.11700
C278        C  0.03163145  0.17874345  0.67237623     0.02900
C279        C  0.00844075  0.18485325  0.68337676    -0.11100
H280        H  0.97451060  0.13460934  0.66348497     0.08500
H281        H  0.05261582  0.15089950  0.65222243     0.06100
H282        H  0.00636758  0.20260868  0.69305211     0.05900
C283        C  0.20198498  0.02812821  0.65775809     0.03000
C284        C  0.18451459  0.02693699  0.63815653    -0.13200
C285        C  0.17200397  0.00455290  0.63239716     0.00500
C286        C  0.17806619  0.98253579  0.64539812    -0.11700
C287        C  0.19567245  0.98270760  0.66491976     0.02900
C288        C  0.20743331  0.00579746  0.67125862    -0.11100
H289        H  0.17993208  0.04382037  0.62777550     0.08500
H290        H  0.16844636  0.96522339  0.64071018     0.06100
H291        H  0.22009725  0.00653259  0.68699767     0.05900
C292        C  0.18001052  0.80725794  0.47066188     0.03000
C293        C  0.18801553  0.79815271  0.49389253    -0.13200
C294        C  0.17906445  0.80936007  0.51602723     0.00500
C295        C  0.16212855  0.82960120  0.51428424    -0.11700
C296        C  0.15167752  0.83669393  0.49131064     0.02900
C297        C  0.16083453  0.82518767  0.46954096    -0.11100
H298        H  0.20163194  0.78305286  0.49459853     0.08500
H299        H  0.15691646  0.83968120  0.53107094     0.06100
H300        H  0.15381320  0.83071706  0.45140157     0.05900
C301        C  0.82745535  0.18132445  0.52039454     0.03000
C302        C  0.82440056  0.19237138  0.49661012    -0.13200
C303        C  0.83962218  0.18458763  0.47636992     0.00500
C304        C  0.85772349  0.16583898  0.48022701    -0.11700
C305        C  0.86090721  0.15489900  0.50372594     0.02900
C306        C  0.84601613  0.16283738  0.52374901    -0.11100
H307        H  0.80988973  0.20633924  0.49371402     0.08500
H308        H  0.86896180  0.15916770  0.46464704     0.06100
H309        H  0.84819708  0.15385853  0.54178934     0.05900
C310        C  0.81041713  0.96099773  0.34419083     0.03000
C311        C  0.80402717  0.98103506  0.32813509    -0.13200
C312        C  0.81079526  0.00582413  0.33434161     0.00500
C313        C  0.82298668  0.01057932  0.35698103    -0.11700
C314        C  0.83112951  0.99081520  0.37230778     0.02900
C315        C  0.82490798  0.96616051  0.36541837    -0.11100
H316        H  0.79447043  0.97736079  0.31071148     0.08500
H317        H  0.82697622  0.02989003  0.36196546     0.06100
H318        H  0.83184710  0.95063281  0.37636317     0.05900
C319        C  0.97152268  0.81541321  0.31792396     0.03000
C320        C  0.97224843  0.83654186  0.33357582    -0.13200
C321        C  0.99436545  0.85044022  0.33637469     0.00500
C322        C  0.01591333  0.84315663  0.32306701    -0.11700
C323        C  0.01657707  0.82063409  0.30921706     0.02900
C324        C  0.99392073  0.80701170  0.30638897    -0.11100
H325        H  0.95556191  0.84191484  0.34392693     0.08500
H326        H  0.03259762  0.85466768  0.32446502     0.06100
H327        H  0.99364178  0.78988861  0.29546389     0.05900
O328        O  0.26305839  0.22125349  0.70804780    -0.80300
O329        O  0.25486843  0.29706059  0.69961695    -0.80300
O330        O  0.19870795  0.23915830  0.73126161    -0.80300
O331        O  0.30375159  0.26966755  0.72211515    -0.80300
O332        O  0.21595668  0.26090446  0.70032945    -0.80400
O333        O  0.31204904  0.22881584  0.72481124    -0.80300
O334        O  0.27830440  0.31205740  0.72943004    -0.80300
O335        O  0.23591436  0.20610288  0.73567074    -0.80300
C336        C  0.24810418  0.20379844  0.71529164     1.09400
C337        C  0.26992020  0.31365572  0.70748303     1.09300
C338        C  0.19917780  0.24608135  0.70847860     1.09400
C339        C  0.31865172  0.25070734  0.71811387     1.09300
O340        O  0.30067493  0.25351391  0.76744305    -0.80300
O341        O  0.19746922  0.28333992  0.74532434    -0.80400
O342        O  0.25019278  0.22538611  0.78369800    -0.80300
O343        O  0.25768407  0.29857271  0.77657210    -0.80300
O344        O  0.23520566  0.31626168  0.74666006    -0.80400
O345        O  0.27744423  0.21065922  0.75673303    -0.80300
O346        O  0.30794969  0.29467804  0.76565335    -0.80300
O347        O  0.21147505  0.26235932  0.77807074    -0.80300
Co348      Co  0.28032120  0.24072296  0.73539228     1.51500
Co349      Co  0.22765459  0.28738364  0.72334318     1.51700
Co350      Co  0.22579205  0.23531514  0.75694980     1.51600
Co351      Co  0.27886074  0.28150942  0.75081821     1.51500
O352        O  0.24928858  0.26097309  0.74098554    -1.42200
C353        C  0.31327305  0.27325549  0.77444605     1.09300
C354        C  0.19555023  0.27704061  0.76813265     1.09400
C355        C  0.26689451  0.20926710  0.77778142     1.09300
C356        C  0.24376569  0.31640965  0.76885619     1.09300
O357        O  0.75209410  0.18374212  0.28850195    -0.80300
O358        O  0.75360544  0.30183364  0.23788666    -0.80300
O359        O  0.78430442  0.22585431  0.21414126    -0.80300
O360        O  0.80202409  0.25565554  0.29167337    -0.80300
O361        O  0.76910224  0.26407109  0.21007865    -0.80400
O362        O  0.78088293  0.22165836  0.30151160    -0.80300
O363        O  0.78779575  0.29499870  0.26010831    -0.80300
O364        O  0.77994821  0.19447389  0.25938687    -0.80300
C365        C  0.77140372  0.17810787  0.27555488     1.09400
C366        C  0.77510566  0.30869833  0.24537150     1.09300
C367        C  0.78366059  0.24667316  0.20258494     1.09400
C368        C  0.80030212  0.23535001  0.30370307     1.09300
O369        O  0.72803788  0.22918976  0.30272395    -0.80300
O370        O  0.71964750  0.27466442  0.20872322    -0.80400
O371        O  0.74756478  0.18886476  0.22289699    -0.80300
O372        O  0.73991331  0.29607846  0.28430351    -0.80300
O373        O  0.71385600  0.27505798  0.25973379    -0.80400
O374        O  0.72349810  0.20384779  0.25362000    -0.80300
O375        O  0.75405899  0.25863547  0.31633240    -0.80300
O376        O  0.73210585  0.23465272  0.21190639    -0.80300
Co377      Co  0.75224457  0.21711903  0.27697187     1.51500
Co378      Co  0.74098397  0.26684378  0.23559372     1.51700
Co379      Co  0.75701383  0.21873792  0.23831803     1.51600
Co380      Co  0.77077239  0.27470203  0.28642732     1.51500
O381        O  0.75994430  0.24968976  0.26023196    -1.42200
C382        C  0.73560848  0.24377578  0.31992127     1.09300
C383        C  0.71952599  0.25220830  0.20052174     1.09400
C384        C  0.72752111  0.18735842  0.23586997     1.09300
C385        C  0.71818690  0.29286566  0.27501560     1.09300
O386        O  0.29511652  0.69452731  0.24131577    -0.80300
O387        O  0.19916962  0.70275561  0.28281890    -0.80300
O388        O  0.27545185  0.72467617  0.29915056    -0.80300
O389        O  0.22354740  0.71948118  0.19939392    -0.80300
O390        O  0.25119447  0.69422277  0.28453377    -0.80400
O391        O  0.25145499  0.69184178  0.21086209    -0.80300
O392        O  0.20539015  0.70427761  0.24214534    -0.80300
O393        O  0.31037780  0.72636153  0.26335198    -0.80300
C394        C  0.31210115  0.70391912  0.25516850     1.09400
C395        C  0.19181823  0.69714642  0.26093625     1.09300
C396        C  0.26649352  0.70253293  0.30083677     1.09400
C397        C  0.23464830  0.69876677  0.19571799     1.09300
O398        O  0.26286973  0.74273419  0.19343373    -0.80300
O399        O  0.23161708  0.74094066  0.30028836    -0.80400
O400        O  0.29084819  0.77293338  0.24411554    -0.80300
O401        O  0.18968727  0.74926693  0.22391612    -0.80300
O402        O  0.20190472  0.74895416  0.26312220    -0.80400
O403        O  0.30511390  0.74250906  0.22007880    -0.80300
O404        O  0.23794000  0.76808409  0.21548780    -0.80300
O405        O  0.25367885  0.77153012  0.28309921    -0.80300
Co406      Co  0.27697720  0.71785379  0.21838578     1.51500
Co407      Co  0.22823219  0.71974511  0.26989942     1.51700
Co408      Co  0.28064255  0.74863273  0.27076845     1.51600
Co409      Co  0.22298267  0.73807753  0.23156521     1.51500
O410        O  0.25626585  0.73132606  0.24738204    -1.42200
C411        C  0.25143157  0.76373484  0.19628959     1.09300
C412        C  0.23980621  0.76333370  0.30067283     1.09400
C413        C  0.30624527  0.76506238  0.22760412     1.09300
C414        C  0.18505789  0.75430164  0.24659968     1.09300
C415        C  0.12548911  0.77024278  0.28369834    -0.11600
C416        C  0.11238420  0.78598026  0.26728802     0.15000
C417        C  0.12400037  0.79232529  0.24425347     0.01900
C418        C  0.14727099  0.78139737  0.23771087    -0.15900
C419        C  0.16053976  0.76589649  0.25443844    -0.10700
C420        C  0.14947906  0.76096588  0.27812981     0.08600
C421        C  0.08757417  0.79613274  0.27622273     0.09600
S422        S  0.11116941  0.81529479  0.22305332    -0.25000
H423        H  0.15556923  0.78588303  0.21975553     0.19900
S424        S  0.16516834  0.74296325  0.30200024    -0.30700
H425        H  0.11687023  0.76554456  0.30142776     0.10200
C426        C  0.06461785  0.79203023  0.26365167     0.03400
C427        C  0.04186902  0.80060259  0.27438691    -0.13000
C428        C  0.04110357  0.81144098  0.29842289    -0.08700
C429        C  0.06407921  0.81348537  0.31166190     0.06900
C430        C  0.08676097  0.80725019  0.29998137    -0.13800
S431        S  0.06385669  0.77415334  0.23502288    -0.30700
H432        H  0.02454106  0.79839198  0.26416610     0.11100
S433        S  0.06601865  0.82106951  0.34445191    -0.27800
H434        H  0.10404730  0.80957904  0.31034216     0.08300
H435        H  0.14584461  0.74284383  0.31995765     0.26800
H436        H  0.03791467  0.77632602  0.23073113     0.21600
H437        H  0.04328963  0.80925356  0.35094484     0.26900
H438        H  0.09762063  0.82891394  0.24111051     0.15700
C439        C  0.82205701  0.06575708  0.29809065    -0.11600
C440        C  0.79763045  0.07540614  0.29678279     0.15000
C441        C  0.77719104  0.05995946  0.30384258     0.01900
C442        C  0.78176538  0.03619583  0.31423724    -0.15900
C443        C  0.80634042  0.02732659  0.31732212    -0.10700
C444        C  0.82660341  0.04182959  0.30800968     0.08600
C445        C  0.79423887  0.10254212  0.29136354     0.09600
S446        S  0.74501331  0.07033900  0.30179404    -0.25000
H447        H  0.76615248  0.02519861  0.32128311     0.19900
S448        S  0.85880557  0.03139074  0.30962733    -0.30700
H449        H  0.83777125  0.07740210  0.29244263     0.10200
C450        C  0.78908306  0.11962030  0.31080527     0.03400
C451        C  0.78366609  0.14473532  0.30507491    -0.13000
C452        C  0.78349024  0.15342379  0.28027608    -0.08700
C453        C  0.78997538  0.13647409  0.26090894     0.06900
C454        C  0.79524170  0.11124416  0.26665735    -0.13800
S455        S  0.78863686  0.10920587  0.34294172    -0.30700
H456        H  0.77857137  0.15753434  0.31998241     0.11100
S457        S  0.78907547  0.14506456  0.22844888    -0.27800
H458        H  0.79921948  0.09809409  0.25170194     0.08300
H459        H  0.85338528  0.00551535  0.30940027     0.26800
H460        H  0.77951550  0.13173220  0.35333910     0.21600
H461        H  0.80457595  0.16620023  0.23154431     0.26900
H462        H  0.74864763  0.08703334  0.28174976     0.15700
C463        C  0.81355041  0.19902154  0.41169461    -0.11600
C464        C  0.83504372  0.20830326  0.39945448     0.15000
C465        C  0.85734992  0.21139696  0.41322987     0.01900
C466        C  0.85776213  0.20490301  0.43859752    -0.15900
C467        C  0.83657681  0.19465691  0.45062769    -0.10700
C468        C  0.81420295  0.19166307  0.43682878     0.08600
C469        C  0.83322626  0.21455174  0.37241499     0.09600
S470        S  0.88617207  0.22248857  0.39935357    -0.25000
H471        H  0.87512014  0.20697441  0.44888018     0.19900
S472        S  0.78636101  0.17720527  0.44959348    -0.30700
H473        H  0.79629802  0.19669079  0.40128587     0.10200
C474        C  0.82741078  0.19594522  0.35464787     0.03400
C475        C  0.81997792  0.20311948  0.33058832    -0.13000
C476        C  0.81850262  0.22859840  0.32369536    -0.08700
C477        C  0.82852195  0.24680478  0.34024548     0.06900
C478        C  0.83521105  0.23965897  0.36458510    -0.13800
S479        S  0.82835380  0.16306931  0.36290395    -0.30700
H480        H  0.81336293  0.18892497  0.31774712     0.11100
S481        S  0.83001707  0.27977617  0.33283956    -0.27800
H482        H  0.84052820  0.25398732  0.37792762     0.08300
H483        H  0.79911603  0.15913623  0.46393230     0.26800
H484        H  0.82794929  0.15394298  0.33826508     0.21600
H485        H  0.84063766  0.27569242  0.30908412     0.26900
H486        H  0.88196438  0.21221897  0.37555499     0.15700
C487        C  0.21714237  0.81419904  0.41095473    -0.11600
C488        C  0.21111699  0.79185085  0.39860407     0.15000
C489        C  0.19715322  0.77312794  0.41127024     0.01900
C490        C  0.18810382  0.77792223  0.43541912    -0.15900
C491        C  0.19329606  0.80076749  0.44734319    -0.10700
C492        C  0.20856851  0.81878082  0.43519179     0.08600
C493        C  0.21915818  0.78894439  0.37233491     0.09600
S494        S  0.18964393  0.74318606  0.39734410    -0.25000
H495        H  0.17637476  0.76410166  0.44466824     0.19900
S496        S  0.21683995  0.84849522  0.44920135    -0.30700
H497        H  0.22817360  0.82840391  0.40142157     0.10200
C498        C  0.20193595  0.79079259  0.35249793     0.03400
C499        C  0.21000520  0.78537533  0.32812285    -0.13000
C500        C  0.23486250  0.77813341  0.32329742    -0.08700
C501        C  0.25245938  0.77830285  0.34296684     0.06900
C502        C  0.24442443  0.78368356  0.36725712    -0.13800
S503        S  0.16953367  0.79903156  0.35836295    -0.30700
H504        H  0.19666585  0.78538827  0.31295492     0.11100
S505        S  0.28482236  0.76931806  0.33872641    -0.27800
H506        H  0.25773303  0.78268357  0.38248203     0.08300
H507        H  0.21623968  0.84010246  0.47406562     0.26800
H508        H  0.16138525  0.79745031  0.33345661     0.21600
H509        H  0.28725240  0.77992388  0.31482212     0.26900
H510        H  0.21095196  0.74168562  0.38184882     0.15700
C511        C  0.24551932  0.08417704  0.67260017    -0.11600
C512        C  0.22793215  0.10375233  0.67562667     0.15000
C513        C  0.20218084  0.09790429  0.67336406     0.01900
C514        C  0.19463489  0.07318411  0.66834942    -0.15900
C515        C  0.21204952  0.05355743  0.66487671    -0.10700
C516        C  0.23794702  0.05936722  0.66692443     0.08600
C517        C  0.23634946  0.12902518  0.68479173     0.09600
S518        S  0.17774217  0.12082507  0.67805321    -0.25000
H519        H  0.17472519  0.06921153  0.66710474     0.19900
S520        S  0.26226611  0.03628928  0.66207531    -0.30700
H521        H  0.26531318  0.08824369  0.67479582     0.10200
C522        C  0.23889367  0.13334283  0.71055294     0.03400
C523        C  0.24431298  0.15759911  0.71926784    -0.13000
C524        C  0.24631843  0.17846182  0.70305831    -0.08700
C525        C  0.24416188  0.17410113  0.67708923     0.06900
C526        C  0.23978651  0.14940211  0.66821723    -0.13800
S527        S  0.23393138  0.10806434  0.73259800    -0.30700
H528        H  0.24626725  0.16045918  0.73918588     0.11100
S529        S  0.24493046  0.19927592  0.65463436    -0.27800
H530        H  0.23757020  0.14630352  0.64836147     0.08300
H531        H  0.24936727  0.02255936  0.64374491     0.26800
H532        H  0.23394081  0.12295862  0.75429495     0.21600
H533        H  0.23219685  0.21673779  0.66978985     0.26900
H534        H  0.19055685  0.14109639  0.66714242     0.15700
C535        C  0.09117190  0.21371784  0.65537078    -0.11600
C536        C  0.10158895  0.21731482  0.67904252     0.15000
C537        C  0.08700889  0.21202047  0.70053573     0.01900
C538        C  0.06332448  0.20100405  0.69788410    -0.15900
C539        C  0.05363795  0.19562486  0.67419273    -0.10700
C540        C  0.06723362  0.20327800  0.65271379     0.08600
C541        C  0.12847096  0.22390957  0.68094343     0.09600
S542        S  0.09828041  0.21731455  0.73183273    -0.25000
H543        H  0.05295853  0.19540393  0.71442579     0.19900
S544        S  0.05538713  0.19949980  0.62142232    -0.30700
H545        H  0.10211611  0.21822143  0.63886771     0.10200
C546        C  0.14623610  0.20567058  0.68807067     0.03400
C547        C  0.17071831  0.21311388  0.69386673    -0.13000
C548        C  0.17774274  0.23850007  0.69293208    -0.08700
C549        C  0.16051118  0.25642587  0.68361528     0.06900
C550        C  0.13602478  0.24893083  0.67771912    -0.13800
S551        S  0.13726201  0.17312658  0.69135654    -0.30700
H552        H  0.18397176  0.19938909  0.70090874     0.11100
S553        S  0.16757374  0.28948887  0.68213584    -0.27800
H554        H  0.12237926  0.26291980  0.67205586     0.08300
H555        H  0.02983267  0.20036536  0.62807893     0.26800
H556        H  0.15826572  0.16578151  0.70542691     0.21600
H557        H  0.19078354  0.28592399  0.67005256     0.26900
H558        H  0.11449768  0.23727581  0.72586226     0.15700
C559        C  0.98385402  0.92288816  0.43551787    -0.11600
C560        C  0.99995770  0.92503668  0.41486488     0.15000
C561        C  0.01792045  0.94449029  0.41431049     0.01900
C562        C  0.01936487  0.96128279  0.43430701    -0.15900
C563        C  0.00289289  0.95966381  0.45478755    -0.10700
C564        C  0.98528999  0.93968523  0.45563125     0.08600
C565        C  0.99856092  0.90591620  0.39484006     0.09600
S566        S  0.03967672  0.94882008  0.38876949    -0.25000
H567        H  0.03310151  0.97625039  0.43358537     0.19900
S568        S  0.96502587  0.93340433  0.48203766    -0.30700
H569        H  0.97046193  0.90757366  0.43623154     0.10200
C570        C  0.01591230  0.88597328  0.39360933     0.03400
C571        C  0.01436234  0.86857761  0.37401783    -0.13000
C572        C  0.99591477  0.87072889  0.35541928    -0.08700
C573        C  0.97873727  0.89103364  0.35657989     0.06900
C574        C  0.98001695  0.90812897  0.37645836    -0.13800
S575        S  0.03969107  0.88240351  0.41732714    -0.30700
H576        H  0.02725287  0.85285246  0.37346662     0.11100
S577        S  0.95542013  0.89676734  0.33294007    -0.27800
H578        H  0.96686520  0.92367301  0.37728786     0.08300
H579        H  0.97670824  0.94912647  0.49950918     0.26800
H580        H  0.05150193  0.86115166  0.40694100     0.21600
H581        H  0.96937942  0.88639956  0.31311656     0.26900
H582        H  0.02424320  0.93888379  0.37000531     0.15700
C583        C  0.93776124  0.99926460  0.42599123    -0.11600
C584        C  0.91511428  0.99640712  0.43930405     0.15000
C585        C  0.91616426  0.99191278  0.46532985     0.01900
C586        C  0.93947495  0.99020090  0.47696052    -0.15900
C587        C  0.96186684  0.99522095  0.46397481    -0.10700
C588        C  0.96080950  0.00051496  0.43818140     0.08600
C589        C  0.89116919  0.99785891  0.42516446     0.09600
S590        S  0.88892209  0.98954846  0.48532641    -0.25000
H591        H  0.94011352  0.98628577  0.49678236     0.19900
S592        S  0.98734223  0.01110529  0.41994452    -0.30700
H593        H  0.93739525  0.00195159  0.40594620     0.10200
C594        C  0.88682234  0.01716921  0.40757233     0.03400
C595        C  0.86682641  0.01487995  0.39090120    -0.13000
C596        C  0.84902338  0.99543903  0.39328039    -0.08700
C597        C  0.85097982  0.97909933  0.41410758     0.06900
C598        C  0.87294373  0.97906055  0.42824389    -0.13800
S599        S  0.90640063  0.04496145  0.40629211    -0.30700
H600        H  0.86580168  0.02798198  0.37553754     0.11100
S601        S  0.82574504  0.95914590  0.42484673    -0.27800
H602        H  0.87552867  0.96443870  0.44205386     0.08300
H603        H  0.00182220  0.02025160  0.43981356     0.26800
H604        H  0.89264773  0.05791747  0.38797352     0.21600
H605        H  0.80651280  0.97363468  0.41405379     0.26900
H606        H  0.87363605  0.00568094  0.47122389     0.15700
C607        C  0.91663951  0.11343679  0.52012643    -0.11600
C608        C  0.91003329  0.09115300  0.50777662     0.15000
C609        C  0.88659793  0.08954279  0.49572531     0.01900
C610        C  0.87096042  0.11059770  0.49499331    -0.15900
C611        C  0.87794780  0.13321770  0.50643976    -0.10700
C612        C  0.90088121  0.13454902  0.51952587     0.08600
C613        C  0.92916936  0.07120598  0.50499862     0.09600
S614        S  0.87607869  0.06148450  0.48013417    -0.25000
H615        H  0.85321970  0.10942673  0.48521452     0.19900
S616        S  0.91157855  0.16272660  0.53490405    -0.30700
H617        H  0.93469107  0.11473431  0.52930186     0.10200
C618        C  0.94319670  0.06905955  0.48278883     0.03400
C619        C  0.96175460  0.05055472  0.48091558    -0.13000
C620        C  0.96670483  0.03399855  0.50076581    -0.08700
C621        C  0.95141650  0.03517506  0.52244580     0.06900
C622        C  0.93331772  0.05422438  0.52457411    -0.13800
S623        S  0.93798524  0.09038845  0.45704823    -0.30700
H624        H  0.97304897  0.04934815  0.46412967     0.11100
S625        S  0.95292527  0.01247945  0.54746088    -0.27800
H626        H  0.92194871  0.05547750  0.54134881     0.08300
H627        H  0.89919565  0.17994088  0.51930652     0.26800
H628        H  0.95539239  0.07946416  0.44046471     0.21600
H629        H  0.96588192  0.99354456  0.53444890     0.26900
H630        H  0.88884756  0.04472757  0.49588153     0.15700
C631        C  0.00193321  0.07903966  0.61992619    -0.11600
C632        C  0.01635048  0.08300791  0.59824903     0.15000
C633        C  0.03188864  0.10449542  0.59697711     0.01900
C634        C  0.03040137  0.12263962  0.61569662    -0.15900
C635        C  0.01586680  0.11890365  0.63740050    -0.10700
C636        C  0.00283724  0.09581851  0.64005830     0.08600
C637        C  0.01376295  0.06565419  0.57660849     0.09600
S638        S  0.05440629  0.10981910  0.57223528    -0.25000
H639        H  0.04079442  0.13991870  0.61304319     0.19900
S640        S  0.98845594  0.08568055  0.66889510    -0.30700
H641        H  0.99010162  0.06255457  0.62139122     0.10200
C642        C  0.01632179  0.03934210  0.57888362     0.03400
C643        C  0.01346054  0.02425768  0.55769226    -0.13000
C644        C  0.01094137  0.03472181  0.53370646    -0.08700
C645        C  0.00950614  0.06124470  0.53139201     0.06900
C646        C  0.00926824  0.07602265  0.55292455    -0.13800
S647        S  0.02492075  0.02477223  0.60812741    -0.30700
H648        H  0.01380398  0.00402468  0.55969435     0.11100
S649        S  0.00981639  0.07820714  0.50215573    -0.27800
H650        H  0.00695394  0.09617706  0.55101804     0.08300
H651        H  0.00502795  0.09897908  0.68443345     0.26800
H652        H  0.02747724  0.00007369  0.59904652     0.21600
H653        H  0.01528841  0.05797037  0.48631505     0.26900
H654        H  0.05943679  0.08421335  0.56782095     0.15700
C655        C  0.08849211  0.02106630  0.54298930    -0.11600
C656        C  0.09163775  0.00126906  0.55991728     0.15000
C657        C  0.07491052  0.98071607  0.55922208     0.01900
C658        C  0.05577304  0.98022654  0.54139983    -0.15900
C659        C  0.05241657  0.00009036  0.52440106    -0.10700
C660        C  0.06929094  0.02072361  0.52521692     0.08600
C661        C  0.11273916  0.00248489  0.57783807     0.09600
S662        S  0.07664224  0.95479336  0.58085779    -0.25000
H663        H  0.04269325  0.96463540  0.54142559     0.19900
S664        S  0.06806358  0.04713923  0.50414537    -0.30700
H665        H  0.10134686  0.03684424  0.54346751     0.10200
C666        C  0.13464473  0.98795927  0.57452041     0.03400
C667        C  0.15371392  0.98891358  0.59256323    -0.13000
C668        C  0.15144925  0.00438940  0.61371850    -0.08700
C669        C  0.12954300  0.01922708  0.61671911     0.06900
C670        C  0.11064204  0.01832328  0.59864489    -0.13800
S671        S  0.13840309  0.96855476  0.54708166    -0.30700
H672        H  0.17051669  0.97767894  0.59018943     0.11100
S673        S  0.12405535  0.03896125  0.64359469    -0.27800
H674        H  0.09380494  0.02952531  0.60115749     0.08300
H675        H  0.05306889  0.03592848  0.48586577     0.26800
H676        H  0.16329325  0.96114548  0.55178947     0.21600
H677        H  0.13622906  0.02320296  0.66081838     0.26900
H678        H  0.08650298  0.96855482  0.60094086     0.15700
C679        C  0.08779197  0.94296715  0.48078969    -0.11600
C680        C  0.07929233  0.91833202  0.48511455     0.15000
C681        C  0.05349835  0.91443846  0.49006969     0.01900
C682        C  0.03765602  0.93510045  0.49290935    -0.15900
C683        C  0.04585409  0.95959879  0.48759389    -0.10700
C684        C  0.07110459  0.96327212  0.48027676     0.08600
C685        C  0.09777341  0.89737247  0.48600022     0.09600
S686        S  0.03921021  0.88372399  0.49176864    -0.25000
H687        H  0.01837430  0.93189612  0.49838318     0.19900
S688        S  0.08305932  0.99272936  0.46881419    -0.30700
H689        H  0.10750554  0.94638063  0.47712602     0.10200
C690        C  0.11555479  0.89322855  0.46681825     0.03400
C691        C  0.13337027  0.87403545  0.46955719    -0.13000
C692        C  0.13239201  0.85704976  0.48974706    -0.08700
C693        C  0.11313056  0.86016359  0.50784429     0.06900
C694        C  0.09738944  0.88110919  0.50662809    -0.13800
S695        S  0.11496108  0.91124464  0.43816905    -0.30700
H696        H  0.14803723  0.87225689  0.45566194     0.11100
S697        S  0.10578523  0.83729012  0.53166840    -0.27800
H698        H  0.08377763  0.88404492  0.52143048     0.08300
H699        H  0.06012034  0.00126322  0.45914199     0.26800
H700        H  0.13378001  0.89770719  0.42547411     0.21600
H701        H  0.11226310  0.81630402  0.51699896     0.26900
H702        H  0.05598047  0.87218066  0.47495217     0.15700
C703        C  0.72678213  0.25268676  0.38973874    -0.11600
C704        C  0.70070687  0.25433661  0.39175481     0.15000
C705        C  0.68579716  0.24837326  0.37079807     0.01900
C706        C  0.69747219  0.24261981  0.34784637    -0.15900
C707        C  0.72374425  0.24361611  0.34522720    -0.10700
C708        C  0.73840971  0.24724388  0.36692828     0.08600
C709        C  0.69048295  0.26535024  0.41513606     0.09600
S710        S  0.65199100  0.24929253  0.37179269    -0.25000
H711        H  0.68593871  0.23916705  0.33159250     0.19900
S712        S  0.77209875  0.24488900  0.36606231    -0.30700
H713        H  0.73809892  0.25683307  0.40598028     0.10200
C714        C  0.68846952  0.25121843  0.43731545     0.03400
C715        C  0.68228553  0.26337623  0.45986083    -0.13000
C716        C  0.67875096  0.28957886  0.46081882    -0.08700
C717        C  0.68152382  0.30371306  0.43849769     0.06900
C718        C  0.68674474  0.29140170  0.41597670    -0.13800
S719        S  0.69399599  0.21773496  0.43681983    -0.30700
H720        H  0.68014743  0.25246870  0.47680317     0.11100
S721        S  0.68052585  0.33763929  0.43758192    -0.27800
H722        H  0.68929348  0.30241135  0.39911803     0.08300
H723        H  0.77632263  0.24638581  0.39192510     0.26800
H724        H  0.69020671  0.21362374  0.46250190     0.21600
H725        H  0.69085613  0.34116688  0.46145079     0.26900
H726        H  0.64953958  0.24550552  0.39765261     0.15700
C727        C  0.30415842  0.36970349  0.68158064    -0.11600
C728        C  0.28668607  0.38876624  0.68693462     0.15000
C729        C  0.26216356  0.38196471  0.69444808     0.01900
C730        C  0.25607326  0.35648673  0.69747751    -0.15900
C731        C  0.27415889  0.33753391  0.69404781    -0.10700
C732        C  0.29819670  0.34427881  0.68518368     0.08600
C733        C  0.29479478  0.41545199  0.68502728     0.09600
S734        S  0.23850234  0.40486202  0.70257353    -0.25000
H735        H  0.23778018  0.35160255  0.70497018     0.19900
S736        S  0.32232616  0.32135938  0.67907398    -0.30700
H737        H  0.32286728  0.37473894  0.67533528     0.10200
C738        C  0.31195878  0.42588962  0.70217266     0.03400
C739        C  0.31981407  0.45091497  0.69926816    -0.13000
C740        C  0.31104127  0.46571906  0.67948669    -0.08700
C741        C  0.29356746  0.45540764  0.66255614     0.06900
C742        C  0.28560264  0.43045406  0.66553934    -0.13800
S743        S  0.32419799  0.40728523  0.72757901    -0.30700
H744        H  0.33354401  0.45878593  0.71190086     0.11100
S745        S  0.28181041  0.47262200  0.63603449    -0.27800
H746        H  0.27249372  0.42249580  0.65230195     0.08300
H747        H  0.30608579  0.30071945  0.67637689     0.26800
H748        H  0.33980582  0.42593973  0.73775705     0.21600
H749        H  0.28413727  0.49671095  0.64649998     0.26900
H750        H  0.25509924  0.42274126  0.71253381     0.15700
C751        C  0.41539578  0.69399833  0.31046347    -0.11600
C752        C  0.40869441  0.67639221  0.29211341     0.15000
C753        C  0.42656567  0.65831644  0.28442766     0.01900
C754        C  0.45053848  0.65821287  0.29521508    -0.15900
C755        C  0.45720431  0.67573273  0.31364250    -0.10700
C756        C  0.43928333  0.69375054  0.32144520     0.08600
C757        C  0.38357615  0.67868510  0.28026200     0.09600
S758        S  0.42007100  0.63505143  0.26084071    -0.25000
H759        H  0.46408298  0.64415714  0.28936435     0.19900
S760        S  0.44565434  0.71708769  0.34505720    -0.30700
H761        H  0.40186203  0.70809203  0.31625504     0.10200
C762        C  0.36156267  0.66956041  0.29187830     0.03400
C763        C  0.33791090  0.67547469  0.28170013    -0.13000
C764        C  0.33593084  0.69048948  0.26026272    -0.08700
C765        C  0.35807874  0.69749303  0.24747092     0.06900
C766        C  0.38162235  0.69169204  0.25763332    -0.13800
S767        S  0.36368972  0.65098143  0.31997181    -0.30700
H768        H  0.32093395  0.66947118  0.29107136     0.11100
S769        S  0.35653996  0.71477763  0.21860974    -0.27800
H770        H  0.39856922  0.69828281  0.24851430     0.08300
H771        H  0.46396736  0.70353613  0.35820823     0.26800
H772        H  0.33773835  0.64718802  0.32314423     0.21600
H773        H  0.38144196  0.71007127  0.21115862     0.26900
H774        H  0.39399875  0.63390192  0.26469708     0.15700
C775        C  0.70186398  0.40493743  0.29916053    -0.11600
C776        C  0.68130899  0.39131912  0.28992493     0.15000
C777        C  0.65797790  0.40355759  0.28711106     0.01900
C778        C  0.65582236  0.42902849  0.29342410    -0.15900
C779        C  0.67617434  0.44248204  0.30342640    -0.10700
C780        C  0.69945460  0.43013609  0.30638367     0.08600
C781        C  0.68475799  0.36404788  0.28526661     0.09600
S782        S  0.63008278  0.38765397  0.27650624    -0.25000
H783        H  0.63778641  0.43825360  0.29140265     0.19900
S784        S  0.72623051  0.44481477  0.32079321    -0.30700
H785        H  0.71972443  0.39550512  0.30170016     0.10200
C786        C  0.68702956  0.35397871  0.26099921     0.03400
C787        C  0.69446994  0.32873758  0.25797166    -0.13000
C788        C  0.70006020  0.31360974  0.27876175    -0.08700
C789        C  0.69563921  0.32333110  0.30289704     0.06900
C790        C  0.68814661  0.34830483  0.30592861    -0.13800
S791        S  0.68280628  0.37383648  0.23400392    -0.30700
H792        H  0.69841392  0.32158640  0.23943649     0.11100
S793        S  0.70077285  0.30499976  0.33053011    -0.27800
H794        H  0.68598232  0.35586453  0.32460841     0.08300
H795        H  0.71236779  0.45872944  0.33841976     0.26800
H796        H  0.68796721  0.35533104  0.21593631     0.21600
H797        H  0.69482509  0.28250636  0.31825175     0.26900
H798        H  0.63636980  0.36370037  0.28562685     0.15700
C799        C  0.25958798  0.67460992  0.36559025    -0.11600
C800        C  0.28377497  0.67891395  0.37493843     0.15000
C801        C  0.30296849  0.68633626  0.35828639     0.01900
C802        C  0.29707038  0.69171057  0.33346880    -0.15900
C803        C  0.27259422  0.68875127  0.32416132    -0.10700
C804        C  0.25386390  0.67922318  0.34042350     0.08600
C805        C  0.28845205  0.67644113  0.40215633     0.09600
S806        S  0.33511248  0.69065739  0.36786693    -0.25000
H807        H  0.31152969  0.69974810  0.32166117     0.19900
S808        S  0.22172154  0.67561715  0.33119662    -0.30700
H809        H  0.24482215  0.66859686  0.37821790     0.10200
C810        C  0.29495341  0.69736912  0.41704940     0.03400
C811        C  0.30306833  0.69354118  0.44173499    -0.13000
C812        C  0.30396225  0.66928351  0.45203202    -0.08700
C813        C  0.29461619  0.64885476  0.43789624     0.06900
C814        C  0.28751119  0.65254517  0.41304851    -0.13800
S815        S  0.29297417  0.72887235  0.40454544    -0.30700
H816        H  0.30951108  0.70930497  0.45276145     0.11100
S817        S  0.29096280  0.61765872  0.45052996    -0.27800
H818        H  0.28160085  0.63657544  0.40197185     0.08300
H819        H  0.22773479  0.66212983  0.30939815     0.26800
H820        H  0.30053475  0.74145590  0.42634424     0.21600
H821        H  0.28796834  0.62520704  0.47552647     0.26900
H822        H  0.33485225  0.67200308  0.38647086     0.15700
C823        C  0.42821100  0.27439367  0.66363976    -0.11600
C824        C  0.42128756  0.27002993  0.68852445     0.15000
C825        C  0.43937753  0.27303438  0.70744322     0.01900
C826        C  0.46258715  0.28380929  0.70163089    -0.15900
C827        C  0.46896281  0.29020048  0.67693127    -0.10700
C828        C  0.45210518  0.28362772  0.65757261     0.08600
C829        C  0.39453648  0.26533876  0.69457966     0.09600
S830        S  0.43366972  0.26423039  0.73944566    -0.25000
H831        H  0.47537707  0.28800448  0.71673436     0.19900
S832        S  0.45998069  0.28607362  0.62488286    -0.30700
H833        H  0.41472277  0.27112322  0.64890318     0.10200
C834        C  0.37997536  0.28400941  0.70642343     0.03400
C835        C  0.35510926  0.27876344  0.71301912    -0.13000
C836        C  0.34398869  0.25546901  0.70751088    -0.08700
C837        C  0.35835075  0.23714818  0.69462007     0.06900
C838        C  0.38349195  0.24221910  0.68847243    -0.13800
S839        S  0.39295778  0.31469753  0.71304261    -0.30700
H840        H  0.34444615  0.29279130  0.72316115     0.11100
S841        S  0.34572274  0.20724315  0.68514777    -0.27800
H842        H  0.39456767  0.22803059  0.67895564     0.08300
H843        H  0.48599723  0.28305156  0.62818790     0.26800
H844        H  0.37123278  0.32521346  0.72382510     0.21600
H845        H  0.32179300  0.21676188  0.67931169     0.26900
H846        H  0.41497884  0.24629209  0.73452156     0.15700
C847        C  0.46111121  0.58623954  0.51264094    -0.11600
C848        C  0.43691275  0.57685862  0.50778655     0.15000
C849        C  0.43403604  0.55053585  0.50458706     0.01900
C850        C  0.45514715  0.53491965  0.50488015    -0.15900
C851        C  0.47898959  0.54412108  0.51103286    -0.10700
C852        C  0.48174179  0.57005078  0.51580106     0.08600
C853        C  0.41527944  0.59476938  0.50550376     0.09600
S854        S  0.40404501  0.53511982  0.50131711    -0.25000
H855        H  0.45276070  0.51508484  0.50121542     0.19900
S856        S  0.51083051  0.58243727  0.52757295    -0.30700
H857        H  0.46375331  0.60631072  0.51453061     0.10200
C858        C  0.40993130  0.61331952  0.52370176     0.03400
C859        C  0.38916121  0.62931069  0.52052584    -0.13000
C860        C  0.37158648  0.62561787  0.50121704    -0.08700
C861        C  0.37650476  0.60600485  0.48384175     0.06900
C862        C  0.39902444  0.59248824  0.48507203    -0.13800
S863        S  0.42820898  0.61581136  0.55199537    -0.30700
H864        H  0.38641316  0.64446627  0.53369009     0.11100
S865        S  0.35382952  0.59445111  0.46183498    -0.27800
H866        H  0.40291674  0.57851601  0.47085667     0.08300
H867        H  0.50263698  0.60737234  0.53085275     0.26800
H868        H  0.41378728  0.63467347  0.56361149     0.21600
H869        H  0.33364799  0.59700504  0.47865958     0.26900
H870        H  0.39035033  0.55257373  0.51561159     0.15700
C871        C  0.42210775  0.50055555  0.62730008    -0.11600
C872        C  0.42041310  0.51386327  0.60479113     0.15000
C873        C  0.39844778  0.52756776  0.59921457     0.01900
C874        C  0.37837287  0.52706708  0.61600910    -0.15900
C875        C  0.37983718  0.51343651  0.63835899    -0.10700
C876        C  0.40216253  0.50045977  0.64431981     0.08600
C877        C  0.44118535  0.51178709  0.58682591     0.09600
S878        S  0.39427943  0.54525869  0.57074092    -0.25000
H879        H  0.36127657  0.53712612  0.61146877     0.19900
S880        S  0.40643507  0.48373502  0.67330157    -0.30700
H881        H  0.43906963  0.49015556  0.63157239     0.10200
C882        C  0.46114671  0.52903441  0.58678568     0.03400
C883        C  0.47977290  0.52701506  0.56845179    -0.13000
C884        C  0.47917024  0.50765906  0.55064383    -0.08700
C885        C  0.45884296  0.49051593  0.55061887     0.06900
C886        C  0.44026578  0.49266789  0.56893277    -0.13800
S887        S  0.46241498  0.55399384  0.60958096    -0.30700
H888        H  0.49496250  0.54051124  0.56792098     0.11100
S889        S  0.45427591  0.46642207  0.52728462    -0.27800
H890        H  0.42457488  0.47970483  0.56890871     0.08300
H891        H  0.39091971  0.49944377  0.68779770     0.26800
H892        H  0.48568516  0.56392823  0.60196769     0.21600
H893        H  0.47184475  0.47482221  0.50958840     0.26900
H894        H  0.41965315  0.54893670  0.56469435     0.15700
C895        C  0.53705527  0.57885735  0.45084668    -0.11600
C896        C  0.51750546  0.57766184  0.43349821     0.15000
C897        C  0.49905450  0.55881974  0.43586600     0.01900
C898        C  0.49975442  0.54251058  0.45625965    -0.15900
C899        C  0.51907227  0.54384580  0.47397415    -0.10700
C900        C  0.53812932  0.56217415  0.47101261     0.08600
C901        C  0.51583660  0.59735859  0.41415703     0.09600
S902        S  0.47420117  0.55460905  0.41349804    -0.25000
H903        H  0.48545620  0.52812874  0.45801634     0.19900
S904        S  0.56401392  0.56597909  0.49226695    -0.30700
H905        H  0.55126568  0.59331440  0.44896373     0.10200
C906        C  0.49824142  0.61703468  0.41624526     0.03400
C907        C  0.49652693  0.63491239  0.39710428    -0.13000
C908        C  0.51211650  0.63352740  0.37594415    -0.08700
C909        C  0.52985962  0.61382772  0.37397062     0.06900
C910        C  0.53168398  0.59605626  0.39325801    -0.13800
S911        S  0.47820583  0.61947755  0.44347061    -0.30700
H912        H  0.48306756  0.65011674  0.39858975     0.11100
S913        S  0.54915984  0.61035392  0.34635520    -0.27800
H914        H  0.54501333  0.58072358  0.39187705     0.08300
H915        H  0.55327860  0.55347072  0.51272954     0.26800
H916        H  0.46400156  0.64013424  0.43516217     0.21600
H917        H  0.56171355  0.58833727  0.35383915     0.26900
H918        H  0.48757493  0.56376826  0.39274008     0.15700
C919        C  0.59230772  0.50079977  0.44831512    -0.11600
C920        C  0.57980831  0.50082042  0.42527616     0.15000
C921        C  0.55330756  0.49941774  0.42522224     0.01900
C922        C  0.54031320  0.49794042  0.44787305    -0.15900
C923        C  0.55259806  0.50100294  0.47084999    -0.10700
C924        C  0.57915842  0.50213872  0.47092169     0.08600
C925        C  0.59508619  0.50158492  0.40192218     0.09600
S926        S  0.53468465  0.50139373  0.39724348    -0.25000
H927        H  0.52007750  0.49607238  0.44754101     0.19900
S928        S  0.59784387  0.50628799  0.49851702    -0.30700
H929        H  0.61264743  0.50089331  0.44866513     0.10200
C930        C  0.61403343  0.51979613  0.39820852     0.03400
C931        C  0.63023876  0.51765023  0.37763895    -0.13000
C932        C  0.62657422  0.49919680  0.35914500    -0.08700
C933        C  0.60536724  0.48320273  0.36138260     0.06900
C934        C  0.59109614  0.48345081  0.38334550    -0.13800
S935        S  0.61733950  0.54627353  0.41914572    -0.30700
H936        H  0.64611295  0.53023312  0.37638961     0.11100
S937        S  0.59420596  0.46331187  0.33648956    -0.27800
H938        H  0.57628641  0.46969746  0.38564993     0.08300
H939        H  0.57939100  0.51857632  0.51249718     0.26800
H940        H  0.63549519  0.55932879  0.40509437     0.21600
H941        H  0.60333209  0.47868992  0.31710276     0.26900
H942        H  0.55091429  0.51806947  0.38474470     0.15700
C943        C  0.58269726  0.43304112  0.52688887    -0.11600
C944        C  0.57728324  0.41613471  0.50766490     0.15000
C945        C  0.55876673  0.42233493  0.48997116     0.01900
C946        C  0.54658296  0.44560357  0.49153404    -0.15900
C947        C  0.55201428  0.46276991  0.51074064    -0.10700
C948        C  0.57041041  0.45619138  0.52872113     0.08600
C949        C  0.59277545  0.39315651  0.50575088     0.09600
S950        S  0.54972003  0.40132595  0.46517860    -0.25000
H951        H  0.53203716  0.45002805  0.47814132     0.19900
S952        S  0.57989317  0.47604064  0.55431160    -0.30700
H953        H  0.59704252  0.42828555  0.54040004     0.10200
C954        C  0.61292943  0.39176263  0.48874633     0.03400
C955        C  0.62878369  0.37074583  0.48914366    -0.13000
C956        C  0.62503375  0.35113370  0.50634921    -0.08700
C957        C  0.60428843  0.35224929  0.52287128     0.06900
C958        C  0.58848789  0.37330100  0.52244679    -0.13800
S959        S  0.61920936  0.41735029  0.46741346    -0.30700
H960        H  0.64477732  0.36998059  0.47662767     0.11100
S961        S  0.59684698  0.32752670  0.54473989    -0.27800
H962        H  0.57270872  0.37424200  0.53518196     0.08300
H963        H  0.56744731  0.49791113  0.54694536     0.26800
H964        H  0.63971055  0.40610939  0.45509287     0.21600
H965        H  0.60711142  0.30784092  0.53044561     0.26900
H966        H  0.55578776  0.37889767  0.47766671     0.15700
C967        C  0.51775516  0.45030876  0.59354978    -0.11600
C968        C  0.51165174  0.42622391  0.58495447     0.15000
C969        C  0.50698813  0.42247095  0.55934833     0.01900
C970        C  0.50900409  0.44274229  0.54291328    -0.15900
C971        C  0.51568826  0.46689747  0.55123761    -0.10700
C972        C  0.52004443  0.47065520  0.57710679     0.08600
C973        C  0.51175697  0.40518199  0.60296210     0.09600
S974        S  0.49884710  0.39227290  0.54634786    -0.25000
H975        H  0.50515527  0.43966461  0.52331507     0.19900
S976        S  0.52985253  0.50009634  0.59080949    -0.30700
H977        H  0.52153214  0.45309399  0.61322611     0.10200
C978        C  0.53190000  0.38808527  0.60383966     0.03400
C979        C  0.53113546  0.36810753  0.62085091    -0.13000
C980        C  0.51100429  0.36528210  0.63770692    -0.08700
C981        C  0.49128904  0.38319935  0.63740654     0.06900
C982        C  0.49169979  0.40263734  0.61976548    -0.13800
S983        S  0.55900291  0.39228458  0.58392237    -0.30700
H984        H  0.54635716  0.35460588  0.62107245     0.11100
S985        S  0.46581147  0.38328415  0.65968569    -0.27800
H986        H  0.47649214  0.41618803  0.61940195     0.08300
H987        H  0.53383984  0.51386348  0.56887010     0.26800
H988        H  0.57121594  0.36972779  0.59029550     0.21600
H989        H  0.48001888  0.37375135  0.67964179     0.26900
H990        H  0.48736787  0.38248959  0.56791616     0.15700
C991        C  0.80282638  0.24031569  0.13429748    -0.11600
C992        C  0.80825027  0.26546184  0.12837881     0.15000
C993        C  0.80950149  0.28321998  0.14790225     0.01900
C994        C  0.80366092  0.27594329  0.17237578    -0.15900
C995        C  0.79715102  0.25101366  0.17843591    -0.10700
C996        C  0.79752243  0.23286952  0.15900245     0.08600
C997        C  0.81025411  0.27333570  0.10170775     0.09600
S998        S  0.81664289  0.31594082  0.14256399    -0.25000
H999        H  0.80272417  0.29035862  0.18657821     0.19900
S1000       S  0.78822071  0.20070160  0.16385207    -0.30700
H1001       H  0.80173160  0.22657107  0.11941139     0.10200
C1002       C  0.83296397  0.27136926  0.08825361     0.03400
C1003       C  0.83475477  0.28179739  0.06414766    -0.13000
C1004       C  0.81426419  0.29414193  0.05304505    -0.08700
C1005       C  0.79129377  0.29543641  0.06633495     0.06900
C1006       C  0.78949894  0.28485949  0.09032025    -0.13800
S1007       S  0.86001913  0.25674834  0.10234349    -0.30700
H1008       H  0.85239016  0.28091695  0.05405924     0.11100
S1009       S  0.76399440  0.31138931  0.05435206    -0.27800
H1010       H  0.77202646  0.28650373  0.10063736     0.08300
H1011       H  0.80507529  0.19695813  0.18366312     0.26800
H1012       H  0.87664334  0.26068586  0.08225220     0.21600
H1013       H  0.77713082  0.33028042  0.04142939     0.26900
H1014       H  0.83284052  0.31201926  0.12216617     0.15700
C1015       C  0.08064758  0.30342292  0.78382872    -0.11600
C1016       C  0.09601327  0.29706469  0.80411686     0.15000
C1017       C  0.08582396  0.29764783  0.82848458     0.01900
C1018       C  0.06052682  0.30400475  0.83181197    -0.15900
C1019       C  0.04549479  0.31175240  0.81162849    -0.10700
C1020       C  0.05598308  0.31162489  0.78733048     0.08600
C1021       C  0.12297750  0.29249463  0.79887954     0.09600
S1022       S  0.10422522  0.29222779  0.85620363    -0.25000
H1023       H  0.05282184  0.30407965  0.85056727     0.19900
S1024       S  0.04009446  0.32396698  0.76029693    -0.30700
H1025       H  0.08849340  0.30346250  0.76511720     0.10200
C1026       C  0.13467911  0.26907020  0.80307313     0.03400
C1027       C  0.15956890  0.26543728  0.79509893    -0.13000
C1028       C  0.17235183  0.28413923  0.78157162    -0.08700
C1029       C  0.16052398  0.30761130  0.77748695     0.06900
C1030       C  0.13639407  0.31171685  0.78692386    -0.13800
S1031       S  0.11725191  0.24297234  0.81596720    -0.30700
H1032       H  0.16829815  0.24719654  0.79743479     0.11100
S1033       S  0.17489163  0.33198223  0.75871320    -0.27800
H1034       H  0.12718348  0.32956363  0.78357781     0.08300
H1035       H  0.02893535  0.34428254  0.77299697     0.26800
H1036       H  0.13763301  0.22625460  0.81791077     0.21600
H1037       H  0.15862759  0.35158903  0.76584666     0.26900
H1038       H  0.12713478  0.30094025  0.84641579     0.15700
C1039       C  0.79981400  0.40850322  0.18313588    -0.11600
C1040       C  0.80077058  0.40710410  0.20922181     0.15000
C1041       C  0.80403210  0.42926458  0.22334038     0.01900
C1042       C  0.80582400  0.45241365  0.21103798    -0.15900
C1043       C  0.80476873  0.45382660  0.18491454    -0.10700
C1044       C  0.80144894  0.43158421  0.17085232     0.08600
C1045       C  0.79516332  0.38265084  0.22087788     0.09600
S1046       S  0.80592159  0.42923743  0.25695344    -0.25000
H1047       H  0.80873293  0.46937450  0.22185665     0.19900
S1048       S  0.79837756  0.43143926  0.13729444    -0.30700
H1049       H  0.79678577  0.39154551  0.17232924     0.10200
C1050       C  0.77105418  0.37737138  0.23037110     0.03400
C1051       C  0.76568182  0.35325142  0.23893660    -0.13000
C1052       C  0.78373301  0.33397654  0.23814249    -0.08700
C1053       C  0.80828414  0.33949603  0.22959128     0.06900
C1054       C  0.81364159  0.36380372  0.22092222    -0.13800
S1055       S  0.74619492  0.40043237  0.23179773    -0.30700
H1056       H  0.74694799  0.34935880  0.24591875     0.11100
S1057       S  0.83345091  0.31674716  0.22849599    -0.27800
H1058       H  0.83220075  0.36796248  0.21366794     0.08300
H1059       H  0.78745918  0.45545344  0.13543288     0.26800
H1060       H  0.75247065  0.41306352  0.20960297     0.21600
H1061       H  0.81871273  0.29508007  0.22615947     0.26900
H1062       H  0.81473950  0.40445587  0.25945812     0.15700
C1063       C  0.07717877  0.69323721  0.22485164    -0.11600
C1064       C  0.09036776  0.67172245  0.23257975     0.15000
C1065       C  0.07983586  0.64780746  0.22805610     0.01900
C1066       C  0.05727160  0.64589552  0.21479025    -0.15900
C1067       C  0.04487881  0.66732475  0.20552927    -0.10700
C1068       C  0.05487792  0.69130627  0.21108377     0.08600
C1069       C  0.11691785  0.67472931  0.24059701     0.09600
S1070       S  0.09545427  0.61896305  0.23655121    -0.25000
H1071       H  0.04991739  0.62738617  0.21058715     0.19900
S1072       S  0.04163620  0.71997538  0.19891035    -0.30700
H1073       H  0.08537531  0.71163468  0.22785073     0.10200
C1074       C  0.13621843  0.67600857  0.22265868     0.03400
C1075       C  0.16084386  0.68113427  0.23017179    -0.13000
C1076       C  0.16712110  0.68468257  0.25550289    -0.08700
C1077       C  0.14805489  0.68048529  0.27361503     0.06900
C1078       C  0.12309792  0.67652676  0.26598194    -0.13800
S1079       S  0.12936093  0.67232602  0.18986917    -0.30700
H1080       H  0.17502016  0.68356612  0.21586783     0.11100
S1081       S  0.15434247  0.67882680  0.30649257    -0.27800
H1082       H  0.10844868  0.67443292  0.27991635     0.08300
H1083       H  0.03658742  0.71030688  0.17501671     0.26800
H1084       H  0.15407346  0.66652249  0.18255316     0.21600
H1085       H  0.17627581  0.66452445  0.30295046     0.26900
H1086       H  0.10805636  0.62856799  0.25743133     0.15700
C1087       C  0.18221965  0.41484219  0.79504104    -0.11600
C1088       C  0.20600622  0.41038483  0.80541676     0.15000
C1089       C  0.21829279  0.43041123  0.81779052     0.01900
C1090       C  0.20660434  0.45405936  0.81956678    -0.15900
C1091       C  0.18261278  0.45827463  0.80963834    -0.10700
C1092       C  0.17046871  0.43838837  0.79701184     0.08600
C1093       C  0.21836919  0.38555899  0.80067185     0.09600
S1094       S  0.24850065  0.42680816  0.83244423    -0.25000
H1095       H  0.21587842  0.46903131  0.82967850     0.19900
S1096       S  0.14002630  0.44195765  0.78280854    -0.30700
H1097       H  0.17288114  0.39991958  0.78491198     0.10200
C1098       C  0.20785700  0.36252505  0.80882906     0.03400
C1099       C  0.21836149  0.33957612  0.80062770    -0.13000
C1100       C  0.23886352  0.33920088  0.78410860    -0.08700
C1101       C  0.25052465  0.36214992  0.77772275     0.06900
C1102       C  0.24015409  0.38498634  0.78591590    -0.13800
S1103       S  0.18055593  0.36229935  0.82892452    -0.30700
H1104       H  0.20947036  0.32196470  0.80557407     0.11100
S1105       S  0.27849771  0.36248881  0.75867904    -0.27800
H1106       H  0.24847471  0.40258499  0.78000671     0.08300
H1107       H  0.14223672  0.46782442  0.77780875     0.26800
H1108       H  0.17784003  0.33601548  0.83020244     0.21600
H1109       H  0.27865417  0.38852066  0.75413071     0.26900
H1110       H  0.24584598  0.40111184  0.83803242     0.15700
C1111       C  0.21485988  0.64652153  0.08431176    -0.11600
C1112       C  0.21657647  0.67073468  0.09435535     0.15000
C1113       C  0.21213313  0.69178791  0.07894765     0.01900
C1114       C  0.20354493  0.68814105  0.05449736    -0.15900
C1115       C  0.19987121  0.66382913  0.04499859    -0.10700
C1116       C  0.20702589  0.64285855  0.05967991     0.08600
C1117       C  0.22061538  0.67372172  0.12150574     0.09600
S1118       S  0.21664236  0.72327932  0.09075334    -0.25000
H1119       H  0.19857335  0.70422727  0.04315084     0.19900
S1120       S  0.20643280  0.61099247  0.04815117    -0.30700
H1121       H  0.21897167  0.63037086  0.09594731     0.10200
C1122       C  0.20070791  0.68125524  0.13716468     0.03400
C1123       C  0.20554860  0.68709961  0.16211578    -0.13000
C1124       C  0.22988620  0.68549440  0.17194248    -0.08700
C1125       C  0.24958363  0.67623076  0.15665193     0.06900
C1126       C  0.24465105  0.67035255  0.13153532    -0.13800
S1127       S  0.16919807  0.68426832  0.12513251    -0.30700
H1128       H  0.19050464  0.69427506  0.17373681     0.11100
S1129       S  0.28144175  0.67427222  0.16799577    -0.27800
H1130       H  0.25973785  0.66435456  0.11930603     0.08300
H1131       H  0.21056450  0.61735194  0.02297624     0.26800
H1132       H  0.15926775  0.69778475  0.14546377     0.21600
H1133       H  0.29212431  0.66380299  0.14630107     0.26900
H1134       H  0.20892379  0.73606637  0.06911265     0.15700
C1135       C  0.03961702  0.51718967  0.91589746    -0.11600
C1136       C  0.05700434  0.49766861  0.91238023     0.15000
C1137       C  0.05603601  0.47640222  0.92810956     0.01900
C1138       C  0.03882727  0.47579778  0.94781009    -0.15900
C1139       C  0.02231884  0.49589468  0.95225195    -0.10700
C1140       C  0.02189969  0.51624122  0.93526276     0.08600
C1141       C  0.07696423  0.50051639  0.89330353     0.09600
S1142       S  0.07675158  0.44977965  0.92451305    -0.25000
H1143       H  0.03898738  0.45987868  0.96039697     0.19900
S1144       S  0.99921279  0.54138797  0.93709079    -0.30700
H1145       H  0.03999154  0.53334761  0.90357139     0.10200
C1146       C  0.07180039  0.49912054  0.86754912     0.03400
C1147       C  0.09172849  0.50014669  0.85033853    -0.13000
C1148       C  0.11659533  0.50277398  0.85844858    -0.08700
C1149       C  0.12161999  0.50490896  0.88421930     0.06900
C1150       C  0.10176428  0.50385557  0.90132273    -0.13800
S1151       S  0.03997981  0.49544716  0.85666479    -0.30700
H1152       H  0.08804060  0.49878771  0.83051983     0.11100
S1153       S  0.15278253  0.50953603  0.89647905    -0.27800
H1154       H  0.10567934  0.50525748  0.92111874     0.08300
H1155       H  0.98060651  0.52784535  0.94999319     0.26800
H1156       H  0.04564112  0.49549272  0.83099573     0.21600
H1157       H  0.16571226  0.49577427  0.87813631     0.26900
H1158       H  0.07954497  0.45181984  0.89848040     0.15700
C1159       C  0.07623966  0.54309792  0.99171228    -0.11600
C1160       C  0.07009762  0.56871304  0.99377843     0.15000
C1161       C  0.04444823  0.57565237  0.99444237     0.01900
C1162       C  0.02599510  0.55709643  0.99271941    -0.15900
C1163       C  0.03212895  0.53139386  0.99301141    -0.10700
C1164       C  0.05782702  0.52439544  0.99279465     0.08600
C1165       C  0.09083678  0.58748844  0.99527940     0.09600
S1166       S  0.03373391  0.60748183  0.99922267    -0.25000
H1167       H  0.00645632  0.56274661  0.99254945     0.19900
S1168       S  0.06913512  0.49249712  0.99585843    -0.30700
H1169       H  0.09577896  0.53751325  0.99057744     0.10200
C1170       C  0.11054314  0.58498957  0.01270393     0.03400
C1171       C  0.13042486  0.60222537  0.01235158    -0.13000
C1172       C  0.13007086  0.62363112  0.99685083    -0.08700
C1173       C  0.10904616  0.62715430  0.98100020     0.06900
C1174       C  0.09079989  0.60833136  0.97920077    -0.13800
S1175       S  0.10994508  0.56081101  0.03649675    -0.30700
H1176       H  0.14625536  0.59897477  0.02449867     0.11100
S1177       S  0.10263434  0.65601908  0.96451271    -0.27800
H1178       H  0.07567810  0.61062992  0.96593185     0.08300
H1179       H  0.04673098  0.48133757  0.00407380     0.26800
H1180       H  0.13201119  0.56799299  0.04892739     0.21600
H1181       H  0.11276615  0.67160261  0.98313713     0.26900
H1182       H  0.05324314  0.61418205  0.01553180     0.15700
C1183       C  0.02150327  0.55112368  0.07003884    -0.11600
C1184       C  0.00413674  0.57084891  0.07167493     0.15000
C1185       C  0.98351177  0.57147138  0.05524437     0.01900
C1186       C  0.98106870  0.55269203  0.03719199    -0.15900
C1187       C  0.99819851  0.53265083  0.03579103    -0.10700
C1188       C  0.01853801  0.53178947  0.05258723     0.08600
C1189       C  0.00778762  0.59008102  0.09118821     0.09600
S1190       S  0.95948699  0.59535113  0.05666615    -0.25000
H1191       H  0.96560017  0.55361183  0.02415585     0.19900
S1192       S  0.04031798  0.50582121  0.05258954    -0.30700
H1193       H  0.03714914  0.55073129  0.08287569     0.10200
C1194       C  0.00465358  0.58401073  0.11661423     0.03400
C1195       C  0.00755795  0.60282127  0.13461063    -0.13000
C1196       C  0.01330317  0.62759172  0.12769605    -0.08700
C1197       C  0.01712837  0.63351932  0.10230338     0.06900
C1198       C  0.01431535  0.61468582  0.08426680    -0.13800
S1199       S  0.99522753  0.55275000  0.12603076    -0.30700
H1200       H  0.00412067  0.59857661  0.15410608     0.11100
S1201       S  0.02503921  0.66475371  0.09186611    -0.27800
H1202       H  0.01696381  0.61924314  0.06470897     0.08300
H1203       H  0.05647411  0.51513263  0.07110431     0.26800
H1204       H  0.99578792  0.55702229  0.15193546     0.21600
H1205       H  0.03661450  0.67244217  0.11413565     0.26900
H1206       H  0.96050353  0.59896580  0.08264296     0.15700
C1207       C  0.94020079  0.49226131  0.07964873    -0.11600
C1208       C  0.91748758  0.50411934  0.07381885     0.15000
C1209       C  0.91365504  0.51407497  0.04979837     0.01900
C1210       C  0.93260258  0.51168311  0.03183695    -0.15900
C1211       C  0.95516769  0.49936526  0.03742808    -0.10700
C1212       C  0.95909829  0.48965066  0.06158277     0.08600
C1213       C  0.89695878  0.50359094  0.09224818     0.09600
S1214       S  0.88444105  0.52936262  0.04194820    -0.25000
H1215       H  0.92988045  0.51929983  0.01331593     0.19900
S1216       S  0.98736633  0.47262179  0.06903794    -0.30700
H1217       H  0.94264066  0.48423968  0.09806422     0.10200
C1218       C  0.87826506  0.48500923  0.09087455     0.03400
C1219       C  0.85837649  0.48545592  0.10793073    -0.13000
C1220       C  0.85725845  0.50365212  0.12688699    -0.08700
C1221       C  0.87673462  0.52158193  0.12893528     0.06900
C1222       C  0.89617438  0.52163877  0.11127614    -0.13800
S1223       S  0.88011181  0.46044039  0.06766884    -0.30700
H1224       H  0.84361343  0.47153913  0.10659249     0.11100
S1225       S  0.87847208  0.54403329  0.15410023    -0.27800
H1226       H  0.91097133  0.53554596  0.11256172     0.08300
H1227       H  0.98311245  0.47113622  0.09492967     0.26800
H1228       H  0.85846884  0.44729522  0.07520355     0.21600
H1229       H  0.86716849  0.52851082  0.17217991     0.26900
H1230       H  0.88961756  0.53261264  0.01637562     0.15700
C1231       C  0.90920787  0.44248832  0.98666538    -0.11600
C1232       C  0.91093107  0.42320272  0.00452749     0.15000
C1233       C  0.93158131  0.42321081  0.02105986     0.01900
C1234       C  0.95048362  0.44127125  0.01837731    -0.15900
C1235       C  0.94891762  0.46037424  0.00038490    -0.10700
C1236       C  0.92740763  0.46148514  0.98497448     0.08600
C1237       C  0.89211049  0.40239005  0.00441825     0.09600
S1238       S  0.93482054  0.40091708  0.04622373    -0.25000
H1239       H  0.96663300  0.44043082  0.03052952     0.19900
S1240       S  0.92143526  0.48664804  0.96314179    -0.30700
H1241       H  0.89351519  0.44275888  0.97386651     0.10200
C1242       C  0.86607594  0.40667290  0.00759758     0.03400
C1243       C  0.84945716  0.38613802  0.00786376    -0.13000
C1244       C  0.85820577  0.36141205  0.00500691    -0.08700
C1245       C  0.88416528  0.35713182  0.00142945     0.06900
C1246       C  0.90066224  0.37761930  0.00098462    -0.13800
S1247       S  0.85386243  0.43807281  0.01192946    -0.30700
H1248       H  0.82952571  0.38925366  0.01045621     0.11100
S1249       S  0.89787796  0.32627208  0.99726132    -0.27800
H1250       H  0.92051840  0.37419966  0.99805722     0.08300
H1251       H  0.93965337  0.50363567  0.97155599     0.26800
H1252       H  0.82848807  0.43134300  0.01479432     0.21600
H1253       H  0.87629734  0.31139876  0.99943601     0.26900
H1254       H  0.90891963  0.39804576  0.05054886     0.15700
C1255       C  0.99120806  0.41577628  0.94325203    -0.11600
C1256       C  0.98167790  0.42254456  0.91984978     0.15000
C1257       C  0.97223332  0.44702727  0.91599203     0.01900
C1258       C  0.97385371  0.46463688  0.93520519    -0.15900
C1259       C  0.98381005  0.45801714  0.95846863    -0.10700
C1260       C  0.99242343  0.43332092  0.96264474     0.08600
C1261       C  0.98406029  0.40425462  0.89937286     0.09600
S1262       S  0.95858324  0.45709165  0.88688908    -0.25000
H1263       H  0.96760131  0.48373911  0.93193886     0.19900
S1264       S  0.00695769  0.42477526  0.99186959    -0.30700
H1265       H  0.99863497  0.39700594  0.94590580     0.10200
C1266       C  0.00250211  0.40716556  0.88069118     0.03400
C1267       C  0.00494981  0.38877840  0.86217979    -0.13000
C1268       C  0.98972301  0.36724913  0.86233862    -0.08700
C1269       C  0.97171464  0.36409578  0.88159080     0.06900
C1270       C  0.96887098  0.38280469  0.89966950    -0.13800
S1271       S  0.02348128  0.43382488  0.88094843    -0.30700
H1272       H  0.01876165  0.39113613  0.84748066     0.11100
S1273       S  0.95265129  0.33625945  0.88492544    -0.27800
H1274       H  0.95513255  0.38038149  0.91445775     0.08300
H1275       H  0.01124692  0.39934109  0.98604688     0.26800
H1276       H  0.03739084  0.42724511  0.85955013     0.21600
H1277       H  0.97073557  0.31948965  0.87540065     0.26900
H1278       H  0.95035783  0.43320595  0.87925653     0.15700
C1279       C  0.24814394  0.78570092  0.13027881    -0.11600
C1280       C  0.26966187  0.80082111  0.12912637     0.15000
C1281       C  0.28104486  0.80859766  0.15170770     0.01900
C1282       C  0.27198509  0.79926476  0.17455928    -0.15900
C1283       C  0.25249608  0.78156907  0.17523292    -0.10700
C1284       C  0.23956420  0.77597180  0.15298170     0.08600
C1285       C  0.28023948  0.80694762  0.10410673     0.09600
S1286       S  0.30856102  0.82828809  0.15261146    -0.25000
H1287       H  0.28206441  0.80359214  0.19155717     0.19900
S1288       S  0.21308097  0.75499358  0.15222106    -0.30700
H1289       H  0.23872730  0.78037228  0.11317706     0.10200
C1290       C  0.28928418  0.78785166  0.08801923     0.03400
C1291       C  0.29911790  0.79427764  0.06449664    -0.13000
C1292       C  0.30024880  0.81940996  0.05666299    -0.08700
C1293       C  0.29047375  0.83841694  0.07253504     0.06900
C1294       C  0.28077396  0.83200439  0.09603429    -0.13800
S1295       S  0.28975904  0.75535938  0.09793750    -0.30700
H1296       H  0.30692061  0.77979628  0.05255672     0.11100
S1297       S  0.28954895  0.87119387  0.06383816    -0.27800
H1298       H  0.27343275  0.84665078  0.10809357     0.08300
H1299       H  0.20456864  0.76116596  0.17631812     0.26800
H1300       H  0.29648008  0.74502186  0.07467898     0.21600
H1301       H  0.28712554  0.86698447  0.03803897     0.26900
H1302       H  0.31967909  0.81858656  0.13080199     0.15700
C1303       C  0.36543165  0.78419403  0.19269731    -0.11600
C1304       C  0.37823197  0.79756542  0.21117156     0.15000
C1305       C  0.36536207  0.80377936  0.23349363     0.01900
C1306       C  0.34058089  0.79536457  0.23723898    -0.15900
C1307       C  0.32845112  0.78013403  0.21951143    -0.10700
C1308       C  0.34103409  0.77533574  0.19649076     0.08600
C1309       C  0.40478643  0.80480058  0.20596993     0.09600
S1310       S  0.37999713  0.82086483  0.25858190    -0.25000
H1311       H  0.33154042  0.79902321  0.25502989     0.19900
S1312       S  0.32818056  0.75690816  0.17128633    -0.30700
H1313       H  0.37490101  0.78000187  0.17522733     0.10200
C1314       C  0.42354239  0.78646536  0.20167416     0.03400
C1315       C  0.44736486  0.79384437  0.19302866    -0.13000
C1316       C  0.45329149  0.81931500  0.18927514    -0.08700
C1317       C  0.43512331  0.83772526  0.19595214     0.06900
C1318       C  0.41100852  0.83026918  0.20347028    -0.13800
S1319       S  0.41718427  0.75356055  0.20709299    -0.30700
H1320       H  0.46111447  0.77961219  0.18827430     0.11100
S1321       S  0.44153105  0.87102984  0.19594723    -0.27800
H1322       H  0.39689681  0.84446925  0.20726497     0.08300
H1323       H  0.30310318  0.76123353  0.17717545     0.26800
H1324       H  0.44186813  0.74488354  0.20334033     0.21600
H1325       H  0.46732280  0.86858647  0.20094042     0.26900
H1326       H  0.40446689  0.81194407  0.25417874     0.15700
C1327       C  0.41577511  0.22830864  0.79769978    -0.11600
C1328       C  0.40595400  0.24385077  0.81651360     0.15000
C1329       C  0.41868845  0.24577473  0.83947691     0.01900
C1330       C  0.44066525  0.23171905  0.84323418    -0.15900
C1331       C  0.45029955  0.21583935  0.82449262    -0.10700
C1332       C  0.43750220  0.21407529  0.80152088     0.08600
C1333       C  0.38154746  0.25619013  0.81159220     0.09600
S1334       S  0.40767570  0.26531367  0.86477135    -0.25000
H1335       H  0.45025415  0.23300561  0.86099412     0.19900
S1336       S  0.44692393  0.19284161  0.77695624    -0.30700
H1337       H  0.40581289  0.22650408  0.78018208     0.10200
C1338       C  0.38008716  0.27745727  0.79604070     0.03400
C1339       C  0.35694785  0.28410402  0.78554557    -0.13000
C1340       C  0.33508274  0.27045085  0.79123486    -0.08700
C1341       C  0.33600298  0.25207415  0.81023813     0.06900
C1342       C  0.35935219  0.24442637  0.81955405    -0.13800
S1343       S  0.40779843  0.29573940  0.78929992    -0.30700
H1344       H  0.35620378  0.29898032  0.77176232     0.11100
S1345       S  0.30811155  0.23839985  0.82371886    -0.27800
H1346       H  0.36029787  0.22881336  0.83251944     0.08300
H1347       H  0.45487496  0.17339199  0.79287577     0.26800
H1348       H  0.39591410  0.31402399  0.77448332     0.21600
H1349       H  0.29191978  0.25820936  0.81712704     0.26900
H1350       H  0.39403430  0.28242042  0.85013294     0.15700
C1351       C  0.28100989  0.09665943  0.83247137    -0.11600
C1352       C  0.28404083  0.10786020  0.80892012     0.15000
C1353       C  0.29420259  0.09329163  0.78913984     0.01900
C1354       C  0.30234440  0.06868295  0.79372018    -0.15900
C1355       C  0.30053294  0.05792144  0.81755633    -0.10700
C1356       C  0.28881248  0.07183845  0.83690563     0.08600
C1357       C  0.27941385  0.13534864  0.80606533     0.09600
S1358       S  0.29855600  0.10519490  0.75782307    -0.25000
H1359       H  0.31119120  0.05818649  0.77873069     0.19900
S1360       S  0.28350398  0.05910472  0.86768328    -0.30700
H1361       H  0.27317029  0.10757142  0.84770867     0.10200
C1362       C  0.25522422  0.14616903  0.80749634     0.03400
C1363       C  0.25190971  0.17171631  0.80119186    -0.13000
C1364       C  0.27219694  0.18638635  0.79275243    -0.08700
C1365       C  0.29660237  0.17568628  0.79270035     0.06900
C1366       C  0.29992038  0.15065454  0.80005030    -0.13800
S1367       S  0.22828879  0.12695584  0.81489621    -0.30700
H1368       H  0.23316140  0.17956231  0.80053703     0.11100
S1369       S  0.32358407  0.19295754  0.78128697    -0.27800
H1370       H  0.31846475  0.14231440  0.79947305     0.08300
H1371       H  0.28185489  0.03385785  0.86005323     0.26800
H1372       H  0.21059052  0.14660257  0.81536768     0.21600
H1373       H  0.34163889  0.17400712  0.78489921     0.26900
H1374       H  0.28072277  0.12459478  0.75911802     0.15700
C1375       C  0.70716647  0.25023660  0.13094366    -0.11600
C1376       C  0.69419018  0.22743227  0.12870021     0.15000
C1377       C  0.68725457  0.21423053  0.15058253     0.01900
C1378       C  0.69454239  0.22343197  0.17398270    -0.15900
C1379       C  0.70792834  0.24604441  0.17622658    -0.10700
C1380       C  0.71386244  0.25977305  0.15434339     0.08600
C1381       C  0.69001464  0.21699962  0.10332066     0.09600
S1382       S  0.66968171  0.18527477  0.14986137    -0.25000
H1383       H  0.69016751  0.21259382  0.19057803     0.19900
S1384       S  0.73259375  0.28792969  0.15482733    -0.30700
H1385       H  0.71284022  0.26029319  0.11424686     0.10200
C1386       C  0.67326936  0.22837455  0.08639365     0.03400
C1387       C  0.66988282  0.21770837  0.06265243    -0.13000
C1388       C  0.68291220  0.19591159  0.05544733    -0.08700
C1389       C  0.69980956  0.18463602  0.07237695     0.06900
C1390       C  0.70337844  0.19546159  0.09595024    -0.13800
S1391       S  0.65536003  0.25577782  0.09543010    -0.30700
H1392       H  0.65658017  0.22597331  0.04979675     0.11100
S1393       S  0.71721900  0.15638210  0.06527579    -0.27800
H1394       H  0.71639838  0.18679307  0.10886249     0.08300
H1395       H  0.71548209  0.30102447  0.17010650     0.26800
H1396       H  0.64296328  0.25915803  0.07253463     0.21600
H1397       H  0.69980000  0.14572124  0.04880698     0.26900
H1398       H  0.65669736  0.19049566  0.12765372     0.15700
C1399       C  0.67135635  0.07787031  0.21897506    -0.11600
C1400       C  0.69534562  0.08793801  0.21520741     0.15000
C1401       C  0.71441360  0.07246479  0.20494955     0.01900
C1402       C  0.70806601  0.04891760  0.19509318    -0.15900
C1403       C  0.68335703  0.03996982  0.19657795    -0.10700
C1404       C  0.66538737  0.05380880  0.21037504     0.08600
C1405       C  0.69925284  0.11511035  0.22003801     0.09600
S1406       S  0.74684285  0.08210652  0.20317549    -0.25000
H1407       H  0.72221132  0.03799480  0.18533021     0.19900
S1408       S  0.63450779  0.04191241  0.21738104    -0.30700
H1409       H  0.65693998  0.08915401  0.22790182     0.10200
C1410       C  0.70485104  0.13187110  0.20038502     0.03400
C1411       C  0.71065502  0.15691659  0.20590338    -0.13000
C1412       C  0.71079642  0.16578735  0.23063931    -0.08700
C1413       C  0.70204640  0.14972079  0.24983558     0.06900
C1414       C  0.69678836  0.12447237  0.24441387    -0.13800
S1415       S  0.70518881  0.12134900  0.16827230    -0.30700
H1416       H  0.71687278  0.16926566  0.19103643     0.11100
S1417       S  0.69898189  0.15963785  0.28179128    -0.27800
H1418       H  0.69144366  0.11185944  0.25940961     0.08300
H1419       H  0.64084472  0.01631988  0.21530567     0.26800
H1420       H  0.71330567  0.14409895  0.15755948     0.21600
H1421       H  0.68782055  0.18279904  0.27566203     0.26900
H1422       H  0.74579912  0.09879484  0.22352503     0.15700
C1423       C  0.41366043  0.02929964  0.94119242    -0.11600
C1424       C  0.41774350  0.00957522  0.92437532     0.15000
C1425       C  0.43705071  0.99207782  0.92916350     0.01900
C1426       C  0.45144183  0.99447335  0.95086726    -0.15900
C1427       C  0.44734203  0.01417174  0.96796412    -0.10700
C1428       C  0.42802728  0.03185852  0.96284692     0.08600
C1429       C  0.40085013  0.00764786  0.90254807     0.09600
S1430       S  0.44440276  0.96647349  0.90830166    -0.25000
H1431       H  0.46649435  0.98117243  0.95416758     0.19900
S1432       S  0.41980278  0.05794637  0.98279018    -0.30700
H1433       H  0.39879475  0.04272639  0.93752262     0.10200
C1434       C  0.38058601  0.99064057  0.90225490     0.03400
C1435       C  0.36358146  0.99119716  0.88228905    -0.13000
C1436       C  0.36635864  0.00851762  0.86265449    -0.08700
C1437       C  0.38730552  0.02484523  0.86256131     0.06900
C1438       C  0.40408016  0.02443949  0.88261732    -0.13800
S1439       S  0.37569261  0.96914004  0.92793025    -0.30700
H1440       H  0.34754570  0.97870203  0.88235018     0.11100
S1441       S  0.39382798  0.04641981  0.83737264    -0.27800
H1442       H  0.41979698  0.03734768  0.88274586     0.08300
H1443       H  0.43478191  0.05156403  0.00320890     0.26800
H1444       H  0.35458507  0.95691545  0.91796253     0.21600
H1445       H  0.38302043  0.03164197  0.81849402     0.26900
H1446       H  0.43614154  0.97824756  0.88632818     0.15700
C1447       C  0.40358576  0.88986838  0.99506720    -0.11600
C1448       C  0.40237062  0.90904565  0.01299319     0.15000
C1449       C  0.38444740  0.90714767  0.03245775     0.01900
C1450       C  0.36648566  0.88806093  0.03173365    -0.15900
C1451       C  0.36761097  0.86882765  0.01369786    -0.10700
C1452       C  0.38788650  0.86894128  0.99643907     0.08600
C1453       C  0.41879994  0.93141727  0.01007884     0.09600
S1454       S  0.38374986  0.92801530  0.05904737    -0.25000
H1455       H  0.35156394  0.88841782  0.04549793     0.19900
S1456       S  0.39624741  0.84251383  0.97693860    -0.30700
H1457       H  0.41726409  0.89085660  0.98009043     0.10200
C1458       C  0.44487693  0.92935541  0.00561770     0.03400
C1459       C  0.45897684  0.95121064  0.00204439    -0.13000
C1460       C  0.44863271  0.97507977  0.00655022    -0.08700
C1461       C  0.42260839  0.97709172  0.01140661     0.06900
C1462       C  0.40788426  0.95542102  0.01149115    -0.13800
S1463       S  0.46096914  0.89941717  0.00698215    -0.30700
H1464       H  0.47870563  0.94973567  0.99743622     0.11100
S1465       S  0.40689613  0.00602617  0.01921875    -0.27800
H1466       H  0.38779486  0.95724970  0.01417584     0.08300
H1467       H  0.38714573  0.82418434  0.99361258     0.26800
H1468       H  0.48510944  0.90832377  0.00099246     0.21600
H1469       H  0.42785471  0.01808906  0.02937761     0.26900
H1470       H  0.40975962  0.93264483  0.05921259     0.15700
C1471       C  0.54633235  0.08898097  0.02829982    -0.11600
C1472       C  0.56181752  0.09101349  0.00719140     0.15000
C1473       C  0.55724928  0.07561894  0.98628791     0.01900
C1474       C  0.53748735  0.05846547  0.98704450    -0.15900
C1475       C  0.52205036  0.05600441  0.00824905    -0.10700
C1476       C  0.52633873  0.07194101  0.02902250     0.08600
C1477       C  0.58315858  0.10865308  0.00789619     0.09600
S1478       S  0.57615768  0.07648276  0.95826368    -0.25000
H1479       H  0.53474274  0.04615380  0.97120058     0.19900
S1480       S  0.50702470  0.07218631  0.05684731    -0.30700
H1481       H  0.54980083  0.10092148  0.04431296     0.10200
C1482       C  0.58310896  0.13129453  0.99422295     0.03400
C1483       C  0.60449684  0.14667457  0.99453719    -0.13000
C1484       C  0.62577233  0.13983256  0.00836580    -0.08700
C1485       C  0.62567967  0.11710366  0.02202803     0.06900
C1486       C  0.60428292  0.10195546  0.02190024    -0.13800
S1487       S  0.55569714  0.14070924  0.97678297    -0.30700
H1488       H  0.60464094  0.16419225  0.98422977     0.11100
S1489       S  0.65249054  0.10599832  0.03930862    -0.27800
H1490       H  0.60432729  0.08441465  0.03221898     0.08300
H1491       H  0.48629347  0.05919455  0.04721877     0.26800
H1492       H  0.56580890  0.16308755  0.96702112     0.21600
H1493       H  0.67065442  0.11585939  0.02290522     0.26900
H1494       H  0.59880297  0.08326723  0.96978603     0.15700
C1495       C  0.47963923  0.09820633  0.95494229    -0.11600
C1496       C  0.48579449  0.09029307  0.93075977     0.15000
C1497       C  0.49118475  0.06474886  0.92618120     0.01900
C1498       C  0.48960212  0.04756776  0.94580354    -0.15900
C1499       C  0.48318714  0.05534360  0.97006649    -0.10700
C1500       C  0.47840578  0.08107033  0.97471831     0.08600
C1501       C  0.48671575  0.10939575  0.91090873     0.09600
S1502       S  0.50047543  0.05293294  0.89594981    -0.25000
H1503       H  0.49404970  0.02799354  0.94230311     0.19900
S1504       S  0.47013864  0.09228092  0.00548387    -0.30700
H1505       H  0.47568870  0.11791650  0.95819114     0.10200
C1506       C  0.46766588  0.11136981  0.89286894     0.03400
C1507       C  0.46935563  0.13015282  0.87458063    -0.13000
C1508       C  0.48947874  0.14721909  0.87436622    -0.08700
C1509       C  0.50800580  0.14566415  0.89315721     0.06900
C1510       C  0.50659130  0.12656995  0.91094994    -0.13800
S1511       S  0.44105833  0.09032616  0.89350956    -0.30700
H1512       H  0.45512592  0.13145608  0.86025881     0.11100
S1513       S  0.53335806  0.16793258  0.89613036    -0.27800
H1514       H  0.52089199  0.12529333  0.92524382     0.08300
H1515       H  0.46899771  0.11801589  0.99955644     0.26800
H1516       H  0.42823165  0.10104077  0.87321119     0.21600
H1517       H  0.51979284  0.18871515  0.88710680     0.26900
H1518       H  0.51178865  0.07517443  0.88733436     0.15700
C1519       C  0.47972507  0.88891842  0.08733549    -0.11600
C1520       C  0.49522237  0.90994014  0.09050039     0.15000
C1521       C  0.51297589  0.91017160  0.10989805     0.01900
C1522       C  0.51441118  0.88967041  0.12628772    -0.15900
C1523       C  0.49860558  0.86872547  0.12355859    -0.10700
C1524       C  0.48151980  0.86814140  0.10334137     0.08600
C1525       C  0.49260763  0.93166245  0.07344946     0.09600
S1526       S  0.53332772  0.93695159  0.11418544    -0.25000
H1527       H  0.52737439  0.89027173  0.14179173     0.19900
S1528       S  0.46204868  0.84129687  0.09648287    -0.30700
H1529       H  0.46638276  0.88860063  0.07211078     0.10200
C1530       C  0.50942973  0.93541818  0.05347089     0.03400
C1531       C  0.50713084  0.95696356  0.03860191    -0.13000
C1532       C  0.48828627  0.97488811  0.04325264    -0.08700
C1533       C  0.47177767  0.97128653  0.06369812     0.06900
C1534       C  0.47387420  0.94954217  0.07828127    -0.13800
S1535       S  0.53357800  0.91256143  0.04669589    -0.30700
H1536       H  0.51966839  0.95968409  0.02288004     0.11100
S1537       S  0.44832667  0.99395251  0.07284657    -0.27800
H1538       H  0.46124304  0.94683849  0.09396404     0.08300
H1539       H  0.47863335  0.82326552  0.10629832     0.26800
H1540       H  0.54591854  0.92662188  0.02809656     0.21600
H1541       H  0.46011332  0.01509259  0.06234125     0.26900
H1542       H  0.54786076  0.92660877  0.13350531     0.15700
C1543       C  0.59166266  0.02573639  0.11140110    -0.11600
C1544       C  0.59042151  0.00850638  0.09163636     0.15000
C1545       C  0.61014919  0.99087414  0.08884635     0.01900
C1546       C  0.63034679  0.99125579  0.10547988    -0.15900
C1547       C  0.63011641  0.00649687  0.12703908    -0.10700
C1548       C  0.60982900  0.02363285  0.13001801     0.08600
C1549       C  0.56819891  0.00935577  0.07474305     0.09600
S1550       S  0.61000356  0.96608182  0.06585181    -0.25000
H1551       H  0.64575447  0.97841703  0.10207019     0.19900
S1552       S  0.60342286  0.04086263  0.15824610    -0.30700
H1553       H  0.57706187  0.03979252  0.11348361     0.10200
C1554       C  0.54334657  0.01008229  0.08425776     0.03400
C1555       C  0.52323550  0.01309646  0.06779284    -0.13000
C1556       C  0.52690214  0.01297494  0.04186476    -0.08700
C1557       C  0.55137741  0.00937569  0.03233968     0.06900
C1558       C  0.57182105  0.00943855  0.04873774    -0.13800
S1559       S  0.53669158  0.00587332  0.11714314    -0.30700
H1560       H  0.50439781  0.01508179  0.07511654     0.11100
S1561       S  0.55647078  0.00228317  0.99974021    -0.27800
H1562       H  0.59070251  0.00875391  0.04126501     0.08300
H1563       H  0.60870180  0.02014341  0.17369627     0.26800
H1564       H  0.51046749  0.00366207  0.11504066     0.21600
H1565       H  0.58252340  0.99828043  0.00124976     0.16700
H1566       H  0.58393984  0.96192916  0.06702246     0.15700
C1567       C  0.80461108  0.84699891  0.30385109    -0.11600
C1568       C  0.78800112  0.85656846  0.32180230     0.15000
C1569       C  0.76680420  0.84202076  0.32868353     0.01900
C1570       C  0.76171053  0.81949789  0.31589158    -0.15900
C1571       C  0.77776945  0.81080102  0.29686179    -0.10700
C1572       C  0.80034154  0.82408247  0.29204505     0.08600
C1573       C  0.79263591  0.88270632  0.33070679     0.09600
S1574       S  0.74532274  0.85140504  0.35305323    -0.25000
H1575       H  0.74450867  0.80942571  0.31998696     0.19900
S1576       S  0.82370714  0.81304992  0.26997223    -0.30700
H1577       H  0.82065992  0.85813887  0.29819975     0.10200
C1578       C  0.81656305  0.89004539  0.33926112     0.03400
C1579       C  0.82201449  0.91560928  0.34214397    -0.13000
C1580       C  0.80356326  0.93428936  0.33882262    -0.08700
C1581       C  0.77899355  0.92667658  0.33221719     0.06900
C1582       C  0.77412244  0.90123276  0.32726296    -0.13800
S1583       S  0.84012507  0.86685853  0.34720912    -0.30700
H1584       H  0.84086978  0.92103489  0.34725383     0.11100
S1585       S  0.75278640  0.94809931  0.33084653    -0.27800
H1586       H  0.75569529  0.89584992  0.32067341     0.08300
H1587       H  0.84341828  0.82856884  0.27812095     0.26800
H1588       H  0.85943503  0.88378351  0.35325344     0.21600
H1589       H  0.76057720  0.96292636  0.35113015     0.26900
H1590       H  0.76288797  0.86555214  0.36662970     0.15700
C1591       C  0.70023386  0.86055613  0.20539116    -0.11600
C1592       C  0.71376730  0.87239970  0.18633341     0.15000
C1593       C  0.73497179  0.86000601  0.17604113     0.01900
C1594       C  0.74272992  0.83678480  0.18600275    -0.15900
C1595       C  0.72918364  0.82516800  0.20538771    -0.10700
C1596       C  0.70678686  0.83680551  0.21414838     0.08600
C1597       C  0.70542419  0.89808191  0.17899141     0.09600
S1598       S  0.75286518  0.87274371  0.15037037    -0.25000
H1599       H  0.75966938  0.82800756  0.17889048     0.19900
S1600       S  0.68561929  0.82180133  0.23614241    -0.30700
H1601       H  0.68427372  0.87015519  0.21358516     0.10200
C1602       C  0.68010000  0.90293551  0.17290051     0.03400
C1603       C  0.67175993  0.92779671  0.17086931    -0.13000
C1604       C  0.68841071  0.94823925  0.17267843    -0.08700
C1605       C  0.71421953  0.94315676  0.17679626     0.06900
C1606       C  0.72215929  0.91835829  0.18093681    -0.13800
S1607       S  0.65826802  0.87751046  0.16721737    -0.30700
H1608       H  0.65198889  0.93125868  0.16787202     0.11100
S1609       S  0.73824304  0.96700805  0.17581456    -0.27800
H1610       H  0.74162876  0.91483726  0.18556247     0.08300
H1611       H  0.66582569  0.83924110  0.23460864     0.26800
H1612       H  0.63777022  0.89244064  0.15988714     0.21600
H1613       H  0.72681782  0.98124307  0.15684997     0.26900
H1614       H  0.73277207  0.88589771  0.13949986     0.15700
C1615       C  0.91027431  0.67707172  0.16651285    -0.11600
C1616       C  0.90502677  0.70017039  0.17810603     0.15000
C1617       C  0.92528991  0.71349597  0.18909055     0.01900
C1618       C  0.95003262  0.70448701  0.18627345    -0.15900
C1619       C  0.95508811  0.68115665  0.17489587    -0.10700
C1620       C  0.93439187  0.66677258  0.16627289     0.08600
C1621       C  0.87790721  0.70721627  0.18136679     0.09600
S1622       S  0.92107575  0.74096369  0.20844320    -0.25000
H1623       H  0.96538174  0.71552555  0.19365371     0.19900
S1624       S  0.93657764  0.63410842  0.15715452    -0.30700
H1625       H  0.89500054  0.66601795  0.15895443     0.10200
C1626       C  0.86756614  0.73074424  0.17441563     0.03400
C1627       C  0.84249335  0.73660484  0.18109876    -0.13000
C1628       C  0.82712656  0.71878922  0.19314712    -0.08700
C1629       C  0.83653954  0.69405090  0.19632835     0.06900
C1630       C  0.86177967  0.68893360  0.19133218    -0.13800
S1631       S  0.88599756  0.75311555  0.15687559    -0.30700
H1632       H  0.83535042  0.75542551  0.17812563     0.11100
S1633       S  0.81712194  0.66887509  0.20838627    -0.27800
H1634       H  0.86922416  0.67059033  0.19603729     0.08300
H1635       H  0.95606489  0.62815624  0.17380799     0.26800
H1636       H  0.86653808  0.77055232  0.15292230     0.21600
H1637       H  0.83332409  0.64893931  0.20206543     0.26900
H1638       H  0.89701754  0.73471094  0.21724444     0.15700
C1639       C  0.90257230  0.80255052  0.30423518    -0.11600
C1640       C  0.89970102  0.77787085  0.31305070     0.15000
C1641       C  0.92092276  0.76525678  0.32280321     0.01900
C1642       C  0.94433943  0.77744820  0.32332734    -0.15900
C1643       C  0.94714966  0.80216003  0.31447282    -0.10700
C1644       C  0.92590756  0.81466543  0.30460542     0.08600
C1645       C  0.87545853  0.76486652  0.30792135     0.09600
S1646       S  0.91923526  0.73376268  0.33514051    -0.25000
H1647       H  0.96036206  0.76780478  0.33126618     0.19900
S1648       S  0.92746478  0.84576310  0.29122885    -0.30700
H1649       H  0.88664383  0.81212826  0.29602347     0.10200
C1650       C  0.85241778  0.77271243  0.31858285     0.03400
C1651       C  0.82959549  0.76355756  0.30883781    -0.13000
C1652       C  0.82945489  0.74705115  0.28838765    -0.08700
C1653       C  0.85259043  0.73747719  0.27948310     0.06900
C1654       C  0.87522726  0.74646690  0.28926477    -0.13800
S1655       S  0.85209732  0.79523748  0.34376168    -0.30700
H1656       H  0.81191384  0.77083547  0.31576124     0.11100
S1657       S  0.85353763  0.71459365  0.25469360    -0.27800
H1658       H  0.89289738  0.74032873  0.28125456     0.08300
H1659       H  0.95250083  0.84399746  0.28298876     0.26800
H1660       H  0.82584407  0.79664393  0.34641387     0.21600
H1661       H  0.87963121  0.71053383  0.25470002     0.26900
H1662       H  0.89371851  0.73474981  0.34189046     0.15700
C1663       C  0.75649423  0.60928117  0.28699870    -0.11600
C1664       C  0.73067431  0.60662529  0.29142528     0.15000
C1665       C  0.71544758  0.62834219  0.29257517     0.01900
C1666       C  0.72619903  0.65200585  0.28860603    -0.15900
C1667       C  0.75195535  0.65482324  0.28343939    -0.10700
C1668       C  0.76734580  0.63304508  0.28335962     0.08600
C1669       C  0.72032271  0.58120927  0.29625775     0.09600
S1670       S  0.68218732  0.62736126  0.29915349    -0.25000
H1671       H  0.71400183  0.66831288  0.28865001     0.19900
S1672       S  0.80095591  0.63419436  0.27963464    -0.30700
H1673       H  0.76834952  0.59270657  0.28676395     0.10200
C1674       C  0.71127538  0.56585804  0.27680474     0.03400
C1675       C  0.69902289  0.54314372  0.28259032    -0.13000
C1676       C  0.69618718  0.53529449  0.30747872    -0.08700
C1677       C  0.70729260  0.54976480  0.32669081     0.06900
C1678       C  0.71871452  0.57272824  0.32093985    -0.13800
S1679       S  0.71436386  0.57582719  0.24476931    -0.30700
H1680       H  0.69081654  0.53196459  0.26784370     0.11100
S1681       S  0.70768496  0.53986066  0.35891525    -0.27800
H1682       H  0.72630533  0.58417547  0.33584301     0.08300
H1683       H  0.80388520  0.65589491  0.29436952     0.26800
H1684       H  0.70460732  0.55384095  0.23393358     0.21600
H1685       H  0.70805064  0.51391329  0.35380894     0.26900
H1686       H  0.67756691  0.60323646  0.28964058     0.15700
C1687       C  0.72818421  0.61975863  0.19259629    -0.11600
C1688       C  0.74969949  0.61674708  0.17780882     0.15000
C1689       C  0.76378577  0.63807858  0.17097518     0.01900
C1690       C  0.75816701  0.66127462  0.18188557    -0.15900
C1691       C  0.73901901  0.66361989  0.19991234    -0.10700
C1692       C  0.72256039  0.64298792  0.20378513     0.08600
C1693       C  0.76032063  0.59120757  0.17505528     0.09600
S1694       S  0.79101117  0.63625663  0.15092302    -0.25000
H1695       H  0.77026268  0.67712979  0.17778910     0.19900
S1696       S  0.69586034  0.64485922  0.22466378    -0.30700
H1697       H  0.71711765  0.60332785  0.19713035     0.10200
C1698       C  0.77711494  0.58188930  0.19313773     0.03400
C1699       C  0.78852935  0.55845558  0.18951741    -0.13000
C1700       C  0.78341898  0.54411240  0.16822972    -0.08700
C1701       C  0.76564801  0.55286709  0.15072596     0.06900
C1702       C  0.75424372  0.57637487  0.15432228    -0.13800
S1703       S  0.78458229  0.60025089  0.22050918    -0.30700
H1704       H  0.80218869  0.55162416  0.20282514     0.11100
S1705       S  0.75732034  0.53525548  0.12322056    -0.27800
H1706       H  0.74105093  0.58340750  0.14064525     0.08300
H1707       H  0.68547529  0.62128560  0.21883894     0.26800
H1708       H  0.79992031  0.58220308  0.23212451     0.21600
H1709       H  0.76254277  0.51133942  0.13310853     0.26900
H1710       H  0.78287880  0.61535976  0.13713569     0.15700
C1711       C  0.64022697  0.78113405  0.18564228    -0.11600
C1712       C  0.61767972  0.77375350  0.19721523     0.15000
C1713       C  0.61860641  0.75484065  0.21578558     0.01900
C1714       C  0.64188472  0.74534889  0.22362836    -0.15900
C1715       C  0.66456571  0.75417523  0.21344460    -0.10700
C1716       C  0.66347007  0.77133947  0.19324873     0.08600
C1717       C  0.59361056  0.78602962  0.18959593     0.09600
S1718       S  0.59086103  0.74266106  0.23089255    -0.25000
H1719       H  0.64235141  0.73211794  0.23895789     0.19900
S1720       S  0.69091796  0.78105470  0.17601114    -0.30700
H1721       H  0.63971188  0.79476975  0.17061210     0.10200
C1722       C  0.58934575  0.81201760  0.19335777     0.03400
C1723       C  0.56614158  0.82267150  0.18660539    -0.13000
C1724       C  0.54685862  0.80793658  0.17642481    -0.08700
C1725       C  0.55127539  0.78203800  0.17234412     0.06900
C1726       C  0.57447921  0.77143962  0.17890775    -0.13800
S1727       S  0.61295728  0.83149771  0.20783404    -0.30700
H1728       H  0.56275782  0.84251419  0.18966952     0.11100
S1729       S  0.52819469  0.76153601  0.15860420    -0.27800
H1730       H  0.57766515  0.75157673  0.17567657     0.08300
H1731       H  0.70472345  0.75895129  0.18047511     0.26800
H1732       H  0.60007779  0.85448319  0.20557056     0.21600
H1733       H  0.51706164  0.77980161  0.14322592     0.26900
H1734       H  0.57779009  0.76563845  0.23144738     0.15700
C1735       C  0.57965395  0.73336154  0.32847895    -0.11600
C1736       C  0.59552376  0.72282909  0.31024040     0.15000
C1737       C  0.58736296  0.70109891  0.29730787     0.01900
C1738       C  0.56405044  0.69032409  0.30316936    -0.15900
C1739       C  0.54842534  0.70061070  0.32165878    -0.10700
C1740       C  0.55628871  0.72254420  0.33429746     0.08600
C1741       C  0.62118669  0.73353016  0.30655460     0.09600
S1742       S  0.60610114  0.68545311  0.27384907    -0.25000
H1743       H  0.55836625  0.67322319  0.29375366     0.19900
S1744       S  0.53807769  0.73675462  0.35901058    -0.30700
H1745       H  0.58583538  0.74976314  0.33875090     0.10200
C1746       C  0.62525376  0.75704853  0.29501791     0.03400
C1747       C  0.64996737  0.76515270  0.29006434    -0.13000
C1748       C  0.67093955  0.75061570  0.29705288    -0.08700
C1749       C  0.66659346  0.72799299  0.31047656     0.06900
C1750       C  0.64198370  0.71954775  0.31452879    -0.13800
S1751       S  0.59900984  0.77651308  0.28604612    -0.30700
H1752       H  0.65289687  0.78256881  0.28001495     0.11100
S1753       S  0.69141215  0.70909815  0.32347376    -0.27800
H1754       H  0.63897259  0.70185004  0.32412118     0.08300
H1755       H  0.51447299  0.72855415  0.35074324     0.26800
H1756       H  0.61292790  0.79448833  0.27259694     0.21600
H1757       H  0.70569914  0.72987249  0.33132418     0.26900
H1758       H  0.62027655  0.70646179  0.26677592     0.15700
C1759       C  0.86678006  0.28315990  0.79157356    -0.11600
C1760       C  0.87797454  0.29609377  0.77171819     0.15000
C1761       C  0.86438527  0.29952918  0.74940256     0.01900
C1762       C  0.83983506  0.29015995  0.74773410    -0.15900
C1763       C  0.82908017  0.27578117  0.76714002    -0.10700
C1764       C  0.84326418  0.27189045  0.78926671     0.08600
C1765       C  0.90442788  0.30387816  0.77520990     0.09600
S1766       S  0.87764637  0.31398738  0.72186572    -0.25000
H1767       H  0.82973991  0.29259870  0.73037421     0.19900
S1768       S  0.83400872  0.25002206  0.81357825    -0.30700
H1769       H  0.87739626  0.28059341  0.80859219     0.10200
C1770       C  0.91128739  0.32929539  0.77779100     0.03400
C1771       C  0.93539047  0.33522591  0.78639016    -0.13000
C1772       C  0.95218626  0.31633334  0.79420851    -0.08700
C1773       C  0.94533987  0.29084880  0.79103475     0.06900
C1774       C  0.92203033  0.28501445  0.78071669    -0.13800
S1775       S  0.88869913  0.35411057  0.77266195    -0.30700
H1776       H  0.94064570  0.35475890  0.78856590     0.11100
S1777       S  0.96375000  0.26486442  0.80253725    -0.27800
H1778       H  0.91659098  0.26543609  0.77914930     0.08300
H1779       H  0.85665827  0.24969251  0.82697105     0.26800
H1780       H  0.90430353  0.37425254  0.77953339     0.21600
H1781       H  0.97015327  0.27662474  0.82515563     0.26900
H1782       H  0.90293315  0.30901371  0.72734605     0.15700
C1783       C  0.93723487  0.18745686  0.72899560    -0.11600
C1784       C  0.91523085  0.18190751  0.71575857     0.15000
C1785       C  0.91741849  0.17194489  0.69134927     0.01900
C1786       C  0.94111878  0.16899311  0.68048992    -0.15900
C1787       C  0.96327816  0.17368138  0.69391545    -0.10700
C1788       C  0.96105910  0.18246947  0.71886628     0.08600
C1789       C  0.89028858  0.18831303  0.72679925     0.09600
S1790       S  0.89077656  0.16190130  0.67314209    -0.25000
H1791       H  0.94214441  0.16247155  0.66136170     0.19900
S1792       S  0.98746715  0.18633423  0.73946269    -0.30700
H1793       H  0.93585197  0.19527808  0.74762819     0.10200
C1794       C  0.88186521  0.17875592  0.75003012     0.03400
C1795       C  0.85756313  0.18479273  0.75863403    -0.13000
C1796       C  0.84105177  0.19889019  0.74383706    -0.08700
C1797       C  0.84953339  0.20823444  0.72051447     0.06900
C1798       C  0.87426669  0.20378852  0.71294454    -0.13800
S1799       S  0.90115657  0.15746026  0.76791635    -0.30700
H1800       H  0.85091768  0.17746875  0.77632246     0.11100
S1801       S  0.82924045  0.22573899  0.69981851    -0.27800
H1802       H  0.88099845  0.21164355  0.69551393     0.08300
H1803       H  0.00069897  0.16530164  0.73040963     0.26800
H1804       H  0.88484802  0.15517489  0.78850862     0.21600
H1805       H  0.84556898  0.22667132  0.67913791     0.26900
H1806       H  0.87613229  0.15418634  0.69366331     0.15700
C1807       C  0.71586282  0.20316465  0.92916795    -0.11600
C1808       C  0.72174905  0.18106591  0.91603557     0.15000
C1809       C  0.71651552  0.15756211  0.92714352     0.01900
C1810       C  0.70482815  0.15670983  0.95058730    -0.15900
C1811       C  0.69792396  0.17875949  0.96341701    -0.10700
C1812       C  0.70370415  0.20230942  0.95247451     0.08600
C1813       C  0.73153693  0.18319626  0.89012211     0.09600
S1814       S  0.72313058  0.12791428  0.91204785    -0.25000
H1815       H  0.70061213  0.13853581  0.95874511     0.19900
S1816       S  0.69453620  0.23187061  0.96624005    -0.30700
H1817       H  0.71968596  0.22124749  0.92062001     0.10200
C1818       C  0.71547722  0.18130534  0.86938448     0.03400
C1819       C  0.72530480  0.18413858  0.84516879    -0.13000
C1820       C  0.75103639  0.18868763  0.84102708    -0.08700
C1821       C  0.76724403  0.18927724  0.86204998     0.06900
C1822       C  0.75724382  0.18704809  0.88621139    -0.13800
S1823       S  0.68222631  0.17628517  0.87382965    -0.30700
H1824       H  0.71260731  0.18378301  0.82945282     0.11100
S1825       S  0.80082815  0.19258147  0.85965582    -0.27800
H1826       H  0.76966936  0.18801116  0.90215482     0.08300
H1827       H  0.67150311  0.22322444  0.97584126     0.26800
H1828       H  0.67602159  0.17408158  0.84841787     0.21600
H1829       H  0.80306898  0.17561709  0.83959851     0.26900
H1830       H  0.74195318  0.13644826  0.89572089     0.15700
C1831       C  0.80430784  0.27929713  0.92093548    -0.11600
C1832       C  0.78469100  0.29329397  0.91028194     0.15000
C1833       C  0.77288829  0.31211259  0.92484581     0.01900
C1834       C  0.78120158  0.31677496  0.94926140    -0.15900
C1835       C  0.80136422  0.30334442  0.95959804    -0.10700
C1836       C  0.81299672  0.28427131  0.94516420     0.08600
C1837       C  0.77661093  0.28731539  0.88426942     0.09600
S1838       S  0.74775586  0.33145073  0.91306679    -0.25000
H1839       H  0.77245005  0.33168474  0.96000952     0.19900
S1840       S  0.83930704  0.26578606  0.95595929    -0.30700
H1841       H  0.81324855  0.26459910  0.91005098     0.10200
C1842       C  0.79243364  0.29143629  0.86345950     0.03400
C1843       C  0.78461406  0.28391531  0.83951362    -0.13000
C1844       C  0.76149653  0.27174910  0.83572883    -0.08700
C1845       C  0.74490154  0.26953073  0.85652472     0.06900
C1846       C  0.75280440  0.27690766  0.88037154    -0.13800
S1847       S  0.82274744  0.30607478  0.86737913    -0.30700
H1848       H  0.79695532  0.28683334  0.82372447     0.11100
S1849       S  0.71373656  0.25657813  0.85452926    -0.27800
H1850       H  0.74036499  0.27412564  0.89619608     0.08300
H1851       H  0.84640680  0.28043375  0.97648772     0.26800
H1852       H  0.83055029  0.30432620  0.84231506     0.21600
H1853       H  0.70691410  0.27200601  0.83429208     0.26900
H1854       H  0.75608193  0.33171821  0.88812732     0.15700
C1855       C  0.63051850  0.17322724  0.77933972    -0.11600
C1856       C  0.61103066  0.18834571  0.77009361     0.15000
C1857       C  0.61607769  0.20524514  0.75043727     0.01900
C1858       C  0.64069885  0.20813736  0.74185423    -0.15900
C1859       C  0.66056722  0.19390560  0.75183155    -0.10700
C1860       C  0.65507012  0.17541790  0.77005136     0.08600
C1861       C  0.58609447  0.18748260  0.78239661     0.09600
S1862       S  0.59198335  0.22389394  0.73573618    -0.25000
H1863       H  0.64441116  0.22228972  0.72775224     0.19900
S1864       S  0.67829045  0.15391094  0.78194280    -0.30700
H1865       H  0.62660122  0.15981444  0.79408213     0.10200
C1866       C  0.57004713  0.16661142  0.77992759     0.03400
C1867       C  0.54662023  0.16679335  0.79201953    -0.13000
C1868       C  0.53899712  0.18737201  0.80666449    -0.08700
C1869       C  0.55529680  0.20811468  0.80934210     0.06900
C1870       C  0.57846433  0.20806917  0.79694503    -0.13800
S1871       S  0.57920363  0.14001978  0.76100427    -0.30700
H1872       H  0.53418580  0.15080351  0.79025151     0.11100
S1873       S  0.54816530  0.23464188  0.82911632    -0.27800
H1874       H  0.59096922  0.22394617  0.79914344     0.08300
H1875       H  0.69117367  0.15150943  0.75907222     0.26800
H1876       H  0.55802372  0.12510148  0.76618213     0.21600
H1877       H  0.53539271  0.22085236  0.84760918     0.26900
H1878       H  0.57209383  0.20714723  0.74028771     0.15700
C1879       C  0.59630465  0.28729723  0.70446763    -0.11600
C1880       C  0.60386648  0.30437933  0.72292389     0.15000
C1881       C  0.58837627  0.32510572  0.72881568     0.01900
C1882       C  0.56589816  0.32844013  0.71574910    -0.15900
C1883       C  0.55844912  0.31148296  0.69709794    -0.10700
C1884       C  0.57390886  0.29068497  0.69139142     0.08600
C1885       C  0.62821475  0.29970088  0.73507146     0.09600
S1886       S  0.59595699  0.34812417  0.75241163    -0.25000
H1887       H  0.55406204  0.34444604  0.72013074     0.19900
S1888       S  0.56658539  0.26828555  0.66720194    -0.30700
H1889       H  0.60823611  0.27140118  0.69991369     0.10200
C1890       C  0.62984524  0.28434916  0.75637162     0.03400
C1891       C  0.65324009  0.27463955  0.76330391    -0.13000
C1892       C  0.67508608  0.28088187  0.74983065    -0.08700
C1893       C  0.67376809  0.29998280  0.73159979     0.06900
C1894       C  0.65024296  0.30843460  0.72360590    -0.13800
S1895       S  0.60203112  0.27625785  0.77394911    -0.30700
H1896       H  0.65411558  0.26061194  0.77793373     0.11100
S1897       S  0.70127297  0.31498640  0.71890675    -0.27800
H1898       H  0.64905486  0.32149681  0.70812297     0.08300
H1899       H  0.55443123  0.28539089  0.65128578     0.26800
H1900       H  0.61460863  0.26463611  0.79391091     0.21600
H1901       H  0.71761121  0.30727925  0.73801144     0.26900
H1902       H  0.61734748  0.33666080  0.76249533     0.15700
C1903       C  0.74516770  0.29633660  0.63489176    -0.11600
C1904       C  0.71978092  0.29525259  0.62804935     0.15000
C1905       C  0.70183980  0.28809427  0.64606951     0.01900
C1906       C  0.70972484  0.27984204  0.66949256    -0.15900
C1907       C  0.73530842  0.27914396  0.67617462    -0.10700
C1908       C  0.75314559  0.28869811  0.65882552     0.08600
C1909       C  0.71245944  0.29902092  0.60154467     0.09600
S1910       S  0.66856264  0.28760563  0.63984283    -0.25000
H1911       H  0.69551855  0.27270775  0.68215244     0.19900
S1912       S  0.78612600  0.29063117  0.66634366    -0.30700
H1913       H  0.75883376  0.30220072  0.62106243     0.10200
C1914       C  0.71106812  0.32309097  0.59067046     0.03400
C1915       C  0.70073278  0.32580354  0.56669309    -0.13000
C1916       C  0.69154169  0.30495058  0.55333974    -0.08700
C1917       C  0.69383566  0.28073280  0.56406094     0.06900
C1918       C  0.70454582  0.27805298  0.58776264    -0.13800
S1919       S  0.72100882  0.35046330  0.60791871    -0.30700
H1920       H  0.69910665  0.34436120  0.55853919     0.11100
S1921       S  0.68184547  0.25268850  0.54946235    -0.27800
H1922       H  0.70556218  0.25951795  0.59613024     0.08300
H1923       H  0.79363544  0.30397899  0.64490636     0.26800
H1924       H  0.71637284  0.36815718  0.58895926     0.21600
H1925       H  0.66012437  0.26409371  0.53980220     0.26900
H1926       H  0.66873434  0.30745958  0.62250998     0.15700
C1927       C  0.79495443  0.21302607  0.57567106    -0.11600
C1928       C  0.78290258  0.19228879  0.58669837     0.15000
C1929       C  0.78331313  0.16890981  0.57426372     0.01900
C1930       C  0.79690883  0.16636797  0.55203738    -0.15900
C1931       C  0.81010610  0.18668011  0.54157362    -0.10700
C1932       C  0.80858136  0.21046775  0.55320171     0.08600
C1933       C  0.77307137  0.19461177  0.61257483     0.09600
S1934       S  0.76828402  0.14117656  0.58664728    -0.25000
H1935       H  0.79788813  0.14806987  0.54316929     0.19900
S1936       S  0.82564467  0.23699221  0.54074238    -0.30700
H1937       H  0.79474371  0.23087071  0.58540014     0.10200
C1938       C  0.78737214  0.18615910  0.63296208     0.03400
C1939       C  0.77777354  0.18859542  0.65722099    -0.13000
C1940       C  0.75404981  0.19944285  0.66192436    -0.08700
C1941       C  0.73932863  0.20696512  0.64117550     0.06900
C1942       C  0.74919308  0.20491483  0.61687492    -0.13800
S1943       S  0.81837228  0.17306101  0.62817735    -0.30700
H1944       H  0.78931771  0.18262619  0.67270864     0.11100
S1945       S  0.70792631  0.21911866  0.64414981    -0.27800
H1946       H  0.73802105  0.21104448  0.60113714     0.08300
H1947       H  0.81676265  0.25484393  0.55803745     0.26800
H1948       H  0.82408636  0.16887209  0.65346091     0.21600
H1949       H  0.70028940  0.20048025  0.66120634     0.26900
H1950       H  0.74911074  0.15383305  0.59964456     0.15700
C1951       C  0.29229300  0.80331096  0.92545919    -0.11600
C1952       C  0.31250167  0.78979456  0.91507050     0.15000
C1953       C  0.33425935  0.78592079  0.92947452     0.01900
C1954       C  0.33564780  0.79623012  0.95346662    -0.15900
C1955       C  0.31566650  0.81015799  0.96372210    -0.10700
C1956       C  0.29371564  0.81371391  0.94948123     0.08600
C1957       C  0.31054723  0.78103640  0.88883293     0.09600
S1958       S  0.36091053  0.76822566  0.91826644    -0.25000
H1959       H  0.35264180  0.79358632  0.96422778     0.19900
S1960       S  0.26745397  0.83219337  0.96033213    -0.30700
H1961       H  0.27557129  0.80644328  0.91441429     0.10200
C1962       C  0.29375494  0.76178794  0.88222875     0.03400
C1963       C  0.28956707  0.75660397  0.85695101    -0.13000
C1964       C  0.30169442  0.77031350  0.83799645    -0.08700
C1965       C  0.32046128  0.78774199  0.84468261     0.06900
C1966       C  0.32449702  0.79314821  0.87002829    -0.13800
S1967       S  0.27693477  0.74445529  0.90598490    -0.30700
H1968       H  0.27547812  0.74291319  0.85193415     0.11100
S1969       S  0.33952600  0.80390826  0.82201102    -0.27800
H1970       H  0.33800044  0.80746926  0.87510561     0.08300
H1971       H  0.28146846  0.84918539  0.97473023     0.26800
H1972       H  0.26240217  0.72988580  0.88962621     0.21600
H1973       H  0.33414032  0.78796191  0.80182588     0.26900
H1974       H  0.34729659  0.75207978  0.90257796     0.15700
C1975       C  0.20782761  0.74653215  0.88311091    -0.11600
C1976       C  0.19753558  0.72232246  0.88417848     0.15000
C1977       C  0.19196687  0.70958331  0.86175020     0.01900
C1978       C  0.19953783  0.71997180  0.83892799    -0.15900
C1979       C  0.21132071  0.74350771  0.83794648    -0.10700
C1980       C  0.21451009  0.75736371  0.86022244     0.08600
C1981       C  0.19467188  0.71005088  0.90882364     0.09600
S1982       S  0.17641440  0.67951378  0.86121396    -0.25000
H1983       H  0.19731773  0.70909977  0.82196768     0.19900
S1984       S  0.22932335  0.78781511  0.86090347    -0.30700
H1985       H  0.21176545  0.75655061  0.90027165     0.10200
C1986       C  0.21068160  0.69025668  0.91627338     0.03400
C1987       C  0.20650237  0.67825649  0.93925127    -0.13000
C1988       C  0.18669581  0.68572139  0.95485486    -0.08700
C1989       C  0.17133086  0.70619311  0.94779065     0.06900
C1990       C  0.17547661  0.71810981  0.92486777    -0.13800
S1991       S  0.23628655  0.68013709  0.89645121    -0.30700
H1992       H  0.21820035  0.66258615  0.94483009     0.11100
S1993       S  0.14566940  0.71751362  0.96680512    -0.27800
H1994       H  0.16336031  0.73347177  0.91925822     0.08300
H1995       H  0.22041355  0.79564400  0.83750946     0.26800
H1996       H  0.24450248  0.66022883  0.91166665     0.21600
H1997       H  0.15576866  0.71040503  0.98994755     0.26900
H1998       H  0.16303264  0.68269640  0.88366327     0.15700
C1999       C  0.22590520  0.92281819  0.69155434    -0.11600
C2000       C  0.20467174  0.90945849  0.69986023     0.15000
C2001       C  0.18091875  0.92122988  0.69844196     0.01900
C2002       C  0.17888764  0.94549556  0.68826141    -0.15900
C2003       C  0.19993730  0.95862845  0.67903591    -0.10700
C2004       C  0.22381387  0.94715320  0.68113757     0.08600
C2005       C  0.20799353  0.88346987  0.71005903     0.09600
S2006       S  0.15236501  0.90657241  0.70939541    -0.25000
H2007       H  0.16046310  0.95404920  0.68695964     0.19900
S2008       S  0.25150512  0.96259387  0.66915128    -0.30700
H2009       H  0.24411730  0.91384421  0.69275607     0.10200
C2010       C  0.20626136  0.86194787  0.69472346     0.03400
C2011       C  0.21037921  0.83786752  0.70497778    -0.13000
C2012       C  0.21669372  0.83462972  0.73022344    -0.08700
C2013       C  0.21732079  0.85627941  0.74571500     0.06900
C2014       C  0.21317863  0.88027084  0.73549434    -0.13800
S2015       S  0.19934595  0.86522234  0.66191976    -0.30700
H2016       H  0.20916975  0.82149463  0.69317439     0.11100
S2017       S  0.22528151  0.85484977  0.77829856    -0.27800
H2018       H  0.21439766  0.89667014  0.74743112     0.08300
H2019       H  0.26903409  0.94520633  0.67849518     0.26800
H2020       H  0.19738128  0.83939634  0.65665669     0.21600
H2021       H  0.20591065  0.83784805  0.78408863     0.26900
H2022       H  0.15985610  0.88145117  0.70650145     0.15700
C2023       C  0.29982228  0.88545944  0.74337841    -0.11600
C2024       C  0.30893339  0.89207595  0.76703677     0.15000
C2025       C  0.31393941  0.87296040  0.78457273     0.01900
C2026       C  0.30819850  0.84806163  0.77874605    -0.15900
C2027       C  0.29806857  0.84128526  0.75558459    -0.10700
C2028       C  0.29450564  0.86027547  0.73742123     0.08600
C2029       C  0.31044684  0.91892859  0.77429466     0.09600
S2030       S  0.32540064  0.87931402  0.81560411    -0.25000
H2031       H  0.30979237  0.83401321  0.79318347     0.19900
S2032       S  0.28019192  0.85413178  0.70773106    -0.30700
H2033       H  0.29571941  0.90010485  0.72992260     0.10200
C2034       C  0.33182109  0.93353272  0.76892866     0.03400
C2035       C  0.33444049  0.95726107  0.78013696    -0.13000
C2036       C  0.31591262  0.96677048  0.79633724    -0.08700
C2037       C  0.29381627  0.95275378  0.80047349     0.06900
C2038       C  0.29131264  0.92896184  0.78939577    -0.13800
S2039       S  0.35653507  0.92113187  0.74933707    -0.30700
H2040       H  0.35139933  0.96806725  0.77711209     0.11100
S2041       S  0.26972069  0.96420141  0.82141344    -0.27800
H2042       H  0.27495836  0.91755165  0.79340081     0.08300
H2043       H  0.29401307  0.83206355  0.70327117     0.26800
H2044       H  0.37116768  0.94312884  0.74869255     0.21600
H2045       H  0.25353899  0.94343328  0.81927795     0.26900
H2046       H  0.33950492  0.90070378  0.80927225     0.15700
C2047       C  0.27991554  0.69797794  0.57575118    -0.11600
C2048       C  0.29906206  0.70650969  0.59169404     0.15000
C2049       C  0.32431550  0.70234961  0.58453248     0.01900
C2050       C  0.32973823  0.69147850  0.56132182    -0.15900
C2051       C  0.31068678  0.68255970  0.54548202    -0.10700
C2052       C  0.28539184  0.68546593  0.55325255     0.08600
C2053       C  0.29209977  0.71784701  0.61635229     0.09600
S2054       S  0.35060416  0.70885033  0.60467281    -0.25000
H2055       H  0.34923939  0.68921861  0.55592426     0.19900
S2056       S  0.25931355  0.67214845  0.53647593    -0.30700
H2057       H  0.26047037  0.70031327  0.58132034     0.10200
C2058       C  0.30020750  0.74194089  0.62388957     0.03400
C2059       C  0.29523145  0.75029647  0.64837353    -0.13000
C2060       C  0.28046982  0.73609351  0.66511246    -0.08700
C2061       C  0.26977062  0.71328366  0.65614558     0.06900
C2062       C  0.27671019  0.70403622  0.63255490    -0.13800
S2063       S  0.31541053  0.76276998  0.60189479    -0.30700
H2064       H  0.30223122  0.76845780  0.65417949     0.11100
S2065       S  0.24589656  0.69615450  0.67309511    -0.27800
H2066       H  0.26979201  0.68591487  0.62646892     0.08300
H2067       H  0.27239472  0.65074225  0.52810450     0.26800
H2068       H  0.31787799  0.78344760  0.61806291     0.21600
H2069       H  0.23797548  0.68064345  0.65337524     0.26900
H2070       H  0.33796606  0.70360630  0.62716797     0.15700
C2071       C  0.21634669  0.78668726  0.57272363    -0.11600
C2072       C  0.19718634  0.78482388  0.59075630     0.15000
C2073       C  0.17234687  0.79087310  0.58391277     0.01900
C2074       C  0.16708735  0.79722273  0.55919324    -0.15900
C2075       C  0.18626580  0.80001271  0.54125165    -0.10700
C2076       C  0.21134568  0.79498354  0.54840030     0.08600
C2077       C  0.20405657  0.77904051  0.61698409     0.09600
S2078       S  0.14676805  0.79271911  0.60604907    -0.25000
H2079       H  0.14778524  0.80110346  0.55417805     0.19900
S2080       S  0.23801891  0.80078933  0.52840138    -0.30700
H2081       H  0.23558743  0.78281805  0.57802247     0.10200
C2082       C  0.19400349  0.75844259  0.63018477     0.03400
C2083       C  0.19931829  0.75566748  0.65570072    -0.13000
C2084       C  0.21603995  0.77193805  0.66806125    -0.08700
C2085       C  0.22808007  0.79109913  0.65376730     0.06900
C2086       C  0.22106787  0.79494798  0.62890963    -0.13800
S2087       S  0.17565973  0.73487348  0.61425457    -0.30700
H2088       H  0.19106754  0.74009487  0.66580549     0.11100
S2089       S  0.25351822  0.81012391  0.66558934    -0.27800
H2090       H  0.22914700  0.81037440  0.61842170     0.08300
H2091       H  0.22789616  0.82251756  0.51734870     0.26800
H2092       H  0.17325959  0.71823431  0.63453825     0.21600
H2093       H  0.26031309  0.82198192  0.64309229     0.26900
H2094       H  0.16126739  0.80154906  0.62609293     0.15700
C2095       C  0.31908592  0.65178853  0.71976692    -0.11600
C2096       C  0.29978732  0.63469428  0.71408650     0.15000
C2097       C  0.27462029  0.64258338  0.71593382     0.01900
C2098       C  0.26933665  0.66733320  0.72259494    -0.15900
C2099       C  0.28840850  0.68458181  0.72849586    -0.10700
C2100       C  0.31365856  0.67667605  0.72687282     0.08600
C2101       C  0.30627587  0.60907467  0.70537982     0.09600
S2102       S  0.24830746  0.62195867  0.71042108    -0.25000
H2103       H  0.24983170  0.67292422  0.72399129     0.19900
S2104       S  0.33957222  0.69760595  0.73241179    -0.30700
H2105       H  0.33848372  0.64583322  0.71815448     0.10200
C2106       C  0.30265633  0.60183819  0.68032248     0.03400
C2107       C  0.30863208  0.57725288  0.67297059    -0.13000
C2108       C  0.31834455  0.55979558  0.69006743    -0.08700
C2109       C  0.32205644  0.56711847  0.71512562     0.06900
C2110       C  0.31572276  0.59158300  0.72255964    -0.13800
S2111       S  0.29129489  0.62414979  0.65751377    -0.30700
H2112       H  0.30633993  0.57167807  0.65366873     0.11100
S2113       S  0.33543615  0.54649066  0.73827461    -0.27800
H2114       H  0.31845081  0.59715704  0.74181809     0.08300
H2115       H  0.32741769  0.71916023  0.72315127     0.26800
H2116       H  0.29114510  0.60760411  0.63703108     0.21600
H2117       H  0.35126996  0.53311571  0.72195237     0.26900
H2118       H  0.26009544  0.59984118  0.71871040     0.15700
C2119       C  0.17851597  0.58411502  0.77014593    -0.11600
C2120       C  0.18574439  0.60235071  0.78765365     0.15000
C2121       C  0.18627445  0.59578636  0.81323127     0.01900
C2122       C  0.17982623  0.57137302  0.82064281    -0.15900
C2123       C  0.17256760  0.55306386  0.80322255    -0.10700
C2124       C  0.17166181  0.55970796  0.77764920     0.08600
C2125       C  0.19519021  0.62713391  0.77875797     0.09600
S2126       S  0.19583210  0.61738471  0.83734069    -0.25000
H2127       H  0.18044595  0.56657674  0.84030285     0.19900
S2128       S  0.16146598  0.53815935  0.75378954    -0.30700
H2129       H  0.17831218  0.58891370  0.75048520     0.10200
C2130       C  0.22113466  0.63145610  0.77676454     0.03400
C2131       C  0.22985807  0.65565469  0.77134816    -0.13000
C2132       C  0.21336644  0.67601601  0.76738670    -0.08700
C2133       C  0.18723038  0.67152216  0.76880225     0.06900
C2134       C  0.17842742  0.64708667  0.77416799    -0.13800
S2135       S  0.24329482  0.60618746  0.78174234    -0.30700
H2136       H  0.24990874  0.65881282  0.77062279     0.11100
S2137       S  0.16436247  0.69630706  0.76596936    -0.27800
H2138       H  0.15842523  0.64386122  0.77597708     0.08300
H2139       H  0.14379520  0.52545734  0.76871906     0.26800
H2140       H  0.26505024  0.61968045  0.77518214     0.21600
H2141       H  0.17872514  0.71460620  0.77833582     0.26900
H2142       H  0.18868498  0.63945011  0.82488815     0.15700
loop_ 
_geom_bond_atom_site_label_1 
_geom_bond_atom_site_label_2 
_geom_bond_distance 
_geom_bond_site_symmetry_2 
_ccdc_geom_bond_type 
O1            C9   1.275       .  A
O1          Co21   2.017       .  S
O2           C10   1.269       .  A
O2          Co22   1.968       .  S
O3           C11   1.272       .  A
O3          Co23   1.999       .  S
O4           C12   1.308       .  A
O4          Co24   2.128       .  S
O5           C11   1.272       .  A
O5          Co22   1.986       .  S
O6           C12   1.275       .  A
O6          Co21   1.915       .  S
O7           C10   1.306       .  A
O7          Co24   2.090       .  S
O8            C9   1.265       .  A
O8          Co23   1.976       .  S
C9         C2132   1.493       .  S
C10        C2012   1.498       .  S
C11        C1979   1.468       .  S
C12        C2084   1.496       .  S
O13          C26   1.312       .  A
O13         Co21   2.147       .  S
O14          C27   1.271       .  A
O14         Co22   2.005       .  S
O15          C28   1.271       .  A
O15         Co23   1.966       .  S
O16          C29   1.274       .  A
O16         Co24   2.005       .  S
O17          C29   1.267       .  A
O17         Co22   1.975       .  S
O18          C28   1.305       .  A
O18         Co21   2.071       .  S
O19          C26   1.277       .  A
O19         Co24   1.924       .  S
O20          C27   1.269       .  A
O20         Co23   1.988       .  S
Co21         O25   1.958       .  S
Co22         O25   2.014       .  S
Co23         O25   2.025       .  S
Co24         O25   1.972       .  S
C26        C2060   1.504       .  S
C27        C1964   1.479       .  S
C28        C2099   1.483       .  S
C29        C2027   1.481       .  S
O30          C38   1.248       .  A
O30         Co50   2.009       .  S
O31          C39   1.265       .  A
O31         Co51   1.912       .  S
O32          C40   1.243       .  A
O32         Co52   1.961       .  S
O33          C41   1.291       .  A
O33         Co53   2.060       .  S
O34          C40   1.247       .  A
O34         Co51   2.009       .  S
O35          C41   1.264       .  A
O35         Co50   1.901       .  S
O36          C39   1.292       .  A
O36         Co53   2.056       .  S
O37          C38   1.247       .  A
O37         Co52   1.973       .  S
C38        C1940   1.496       .  S
C39        C1820   1.495       .  S
C40        C1796   1.481       .  S
C41        C1859   1.484       .  S
O42          C55   1.272       .  A
O42         Co50   1.989       .  S
O43          C56   1.291       .  A
O43         Co51   2.024       .  S
O44          C57   1.275       .  A
O44         Co52   2.019       .  S
O45          C58   1.261       .  A
O45         Co53   2.010       .  S
O46          C58   1.273       .  A
O46         Co51   1.999       .  S
O47          C57   1.293       .  A
O47         Co50   2.028       .  S
O48          C55   1.262       .  A
O48         Co53   2.003       .  S
O49          C56   1.277       .  A
O49         Co52   2.013       .  S
Co50         O54   1.961       .  S
Co51         O54   1.972       .  S
Co52         O54   2.074       .  S
Co53         O54   2.227       .  S
C55        C1892   1.478       .  S
C56        C1763   1.488       .  S
C57        C1907   1.501       .  S
C58        C1844   1.501       .  S
O59          C67   1.254       .  A
O59         Co79   2.007       .  S
O60          C68   1.279       .  A
O60         Co80   2.018       .  S
O61          C69   1.268       .  A
O61         Co81   1.980       .  S
O62          C70   1.248       .  A
O62         Co82   1.972       .  S
O63          C69   1.282       .  A
O63         Co80   2.019       .  S
O64          C70   1.249       .  A
O64         Co79   1.986       .  S
O65          C68   1.266       .  A
O65         Co82   1.975       .  S
O66          C67   1.245       .  A
O66         Co81   1.979       .  S
C67        C1715   1.492       .  S
C68        C1628   1.491       .  S
C69        C1595   1.486       .  S
C70        C1691   1.489       .  S
O71          C84   1.291       .  A
O71         Co79   2.050       .  S
O72          C85   1.266       .  A
O72         Co80   1.990       .  S
O73          C86   1.275       .  A
O73         Co81   1.941       .  S
O74          C87   1.270       .  A
O74         Co82   2.004       .  S
O75          C87   1.270       .  A
O75         Co80   2.016       .  S
O76          C86   1.286       .  A
O76         Co79   2.033       .  S
O77          C84   1.270       .  A
O77         Co82   1.917       .  S
O78          C85   1.269       .  A
O78         Co81   1.998       .  S
Co79         O83   2.259       .  S
Co80         O83   2.098       .  S
Co81         O83   1.957       .  S
Co82         O83   1.944       .  S
C84        C1667   1.490       .  S
C85        C1571   1.484       .  S
C86        C1748   1.499       .  S
C87        C1652   1.485       .  S
C88        C1556   1.497       .  S
C88          C89   1.414   1_545  A
C88          C93   1.418       .  A
C89        C1532   1.496       .  S
C89          C90   1.421       .  A
C90        C1460   1.492       .  S
C90          C91   1.419   1_564  A
C91        C1427   1.502       .  S
C91          C92   1.421       .  A
C92        C1499   1.490       .  S
C92          C93   1.422   1_556  A
C93        C1475   1.496       .  S
C94        C1604   1.495       .  S
C94          C95   1.408       .  A
C94          C99   1.408       .  A
C95          C96   1.403   1_565  A
C95         H100   1.083       .  S
C96        C1403   1.480       .  S
C96          C97   1.404       .  A
C97          C98   1.405       .  A
C97         H101   1.082       .  S
C98        C1547   1.504       .  S
C98          C99   1.407   1_545  A
C99         H102   1.081       .  S
C103       C1811   1.492       .  S
C103        C104   1.406       .  A
C103        C108   1.413   1_556  A
C104        C105   1.399   1_556  A
C104        H109   1.084       .  S
C105       C1484   1.476       .  S
C105        C106   1.398       .  A
C106        C107   1.400       .  A
C106        H110   1.084       .  S
C107       C1388   1.479       .  S
C107        C108   1.410       .  A
C108        H111   1.083       .  S
C112       C2036   1.483       .  S
C112        C113   1.407   1_565  A
C112        C117   1.404       .  A
C113        C114   1.409       .  A
C113        H118   1.084       .  S
C114       C1355   1.488       .  S
C114        C115   1.406       .  A
C115        C116   1.404       .  A
C115        H119   1.084       .  S
C116       C1436   1.484       .  S
C116        C117   1.401   1_545  A
C117        H120   1.084       .  S
C121       C1868   1.479       .  S
C121        C122   1.407       .  A
C121        C126   1.399       .  A
C122        C123   1.409       .  A
C122        H127   1.083       .  S
C123       C1331   1.482       .  S
C123        C124   1.403       .  A
C124        C125   1.401       .  A
C124        H128   1.084       .  S
C125       C1508   1.477       .  S
C125        C126   1.399       .  A
C126        H129   1.084       .  S
C130       C1724   1.489       .  S
C130        C131   1.410       .  A
C130        C135   1.404       .  A
C131        C132   1.412       .  A
C131        H136   1.083       .  S
C132       C1316   1.497       .  S
C132        C133   1.406       .  A
C133        C134   1.402       .  A
C133        H137   1.083       .  S
C134       C1523   1.487       .  S
C134        C135   1.405       .  A
C135        H138   1.084       .  S
C139       C1955   1.482       .  S
C139        C140   1.407   1_556  A
C139        C144   1.398       .  A
C140        C141   1.410       .  A
C140        H145   1.083       .  S
C141       C1292   1.486       .  S
C141        C142   1.403       .  A
C142        C143   1.405       .  A
C142        H146   1.083       .  S
C143       C1451   1.493       .  S
C143        C144   1.402   1_554  A
C144        H147   1.082       .  S
C148       C1163   1.498       .  S
C148        C149   1.418       .  A
C148        C153   1.420   1_456  A
C149       C1139   1.493       .  S
C149        C150   1.417   1_455  A
C150       C1259   1.479       .  S
C150        C151   1.413       .  A
C151       C1235   1.498   1_556  S
C151        C152   1.412   1_556  A
C152       C1211   1.483       .  S
C152        C153   1.416       .  A
C153       C1187   1.491       .  S
C154       C1988   1.474       .  S
C154        C155   1.401       .  A
C154        C159   1.402       .  A
C155        C156   1.406       .  A
C155        H160   1.082       .  S
C156       C1172   1.500       .  S
C156        C157   1.408   1_556  A
C157        C158   1.405       .  A
C157        H161   1.083       .  S
C158       C1115   1.485       .  S
C158        C159   1.404   1_554  A
C159        H162   1.084   1_556  S
C163       C2123   1.490       .  S
C163        C164   1.414       .  A
C163        C168   1.404       .  A
C164        C165   1.413       .  A
C164        H169   1.083       .  S
C165       C1091   1.488       .  S
C165        C166   1.403       .  A
C166        C167   1.400       .  A
C166        H170   1.084       .  S
C167       C1148   1.474       .  S
C167        C168   1.398       .  A
C168        H171   1.084       .  S
C172       C1619   1.502       .  S
C172        C173   1.404       .  A
C172        C177   1.417   1_655  A
C173        C174   1.394   1_655  A
C173        H178   1.083       .  S
C174       C1196   1.472       .  S
C174        C175   1.395       .  A
C175        C176   1.405       .  A
C175        H179   1.084       .  S
C176       C1067   1.492       .  S
C176        C177   1.417       .  A
C177        H180   1.083   1_455  S
C181       C1043   1.474       .  S
C181        C182   1.397       .  A
C181        C186   1.404       .  A
C182        C183   1.398       .  A
C182        H187   1.085       .  S
C183       C1220   1.476       .  S
C183        C184   1.402       .  A
C184        C185   1.403       .  A
C184        H188   1.084       .  S
C185       C1700   1.474       .  S
C185        C186   1.405       .  A
C186        H189   1.084       .  S
C190       C1019   1.487       .  S
C190        C191   1.404       .  A
C190        C195   1.409   1_455  A
C191        C192   1.399   1_455  A
C191        H196   1.084       .  S
C192       C1268   1.477       .  S
C192        C193   1.396       .  A
C193        C194   1.402       .  A
C193        H197   1.084       .  S
C194       C1772   1.486       .  S
C194        C195   1.408       .  A
C195        H198   1.082   1_655  S
C199       C1004   1.491       .  S
C199        C200   1.406       .  A
C199        C204   1.413       .  A
C200        C201   1.402       .  A
C200        H205   1.084       .  S
C201       C1244   1.479       .  S
C201        C202   1.400   1_554  A
C202        C203   1.404       .  A
C202        H206   1.084       .  S
C203       C1835   1.486       .  S
C203        C204   1.413   1_556  A
C204        H207   1.083       .  S
C208        C971   1.498       .  S
C208        C209   1.422       .  A
C208        C213   1.418       .  A
C209        C947   1.496       .  S
C209        C210   1.423       .  A
C210        C923   1.499       .  S
C210        C211   1.425       .  A
C211        C899   1.492       .  S
C211        C212   1.415       .  A
C212        C851   1.503       .  S
C212        C213   1.415       .  A
C213        C884   1.484       .  S
C214        C827   1.492       .  S
C214        C215   1.409       .  A
C214        C219   1.408       .  A
C215        C216   1.405       .  A
C215        H220   1.082       .  S
C216        C980   1.487       .  S
C216        C217   1.402       .  A
C217        C218   1.398       .  A
C217        H221   1.084       .  S
C218       C1883   1.477       .  S
C218        C219   1.403       .  A
C219        H222   1.084       .  S
C223        C812   1.487       .  S
C223        C224   1.406       .  A
C223        C228   1.405       .  A
C224        C225   1.410       .  A
C224        H229   1.083       .  S
C225       C2051   1.499       .  S
C225        C226   1.409       .  A
C226        C227   1.411       .  A
C226        H230   1.082       .  S
C227        C860   1.510       .  S
C227        C228   1.408       .  A
C228        H231   1.081       .  S
C232        C779   1.484       .  S
C232        C233   1.401       .  A
C232        C237   1.407       .  A
C233        C234   1.404       .  A
C233        H238   1.082       .  S
C234        C932   1.498       .  S
C234        C235   1.407       .  A
C235        C236   1.406       .  A
C235        H239   1.083       .  S
C236       C1676   1.486       .  S
C236        C237   1.407       .  A
C237        H240   1.083       .  S
C241        C755   1.484       .  S
C241        C242   1.410       .  A
C241        C246   1.402       .  A
C242        C243   1.410       .  A
C242        H247   1.083       .  S
C243       C1739   1.484       .  S
C243        C244   1.403       .  A
C244        C245   1.403       .  A
C244        H248   1.084       .  S
C245        C908   1.482       .  S
C245        C246   1.403       .  A
C246        H249   1.084       .  S
C250        C740   1.478       .  S
C250        C251   1.401       .  A
C250        C255   1.409       .  A
C251        C252   1.399       .  A
C251        H256   1.084       .  S
C252        C875   1.471       .  S
C252        C253   1.396       .  A
C253        C254   1.399       .  A
C253        H257   1.085       .  S
C254       C2108   1.477       .  S
C254        C255   1.408       .  A
C255        H258   1.083       .  S
C259        C716   1.492       .  S
C259        C260   1.403       .  A
C259        C264   1.411       .  A
C260        C261   1.400       .  A
C260        H265   1.084       .  S
C261        C956   1.481       .  S
C261        C262   1.402       .  A
C262        C263   1.405       .  A
C262        H266   1.084       .  S
C263       C1916   1.492       .  S
C263        C264   1.411       .  A
C264        H267   1.083       .  S
C268        C644   1.497       .  S
C268        C269   1.426   1_545  A
C268        C273   1.420   1_455  A
C269        C659   1.501   1_565  S
C269        C270   1.423       .  A
C270        C683   1.495       .  S
C270        C271   1.419       .  A
C271        C563   1.498       .  S
C271        C272   1.414   1_455  A
C272        C587   1.490       .  S
C272        C273   1.417   1_565  A
C273        C620   1.498       .  S
C274       C1787   1.498       .  S
C274        C275   1.411       .  A
C274        C279   1.410   1_655  A
C275        C276   1.405   1_655  A
C275        H280   1.080       .  S
C276        C635   1.495       .  S
C276        C277   1.401       .  A
C277        C278   1.399       .  A
C277        H281   1.084       .  S
C278        C539   1.481       .  S
C278        C279   1.404       .  A
C279        H282   1.083       .  S
C283        C515   1.505       .  S
C283        C284   1.407       .  A
C283        C288   1.421       .  A
C284        C285   1.400       .  A
C284        H289   1.084       .  S
C285        C668   1.486       .  S
C285        C286   1.400   1_545  A
C286        C287   1.408       .  A
C286        H290   1.084       .  S
C287       C2003   1.504       .  S
C287        C288   1.421   1_565  A
C288        H291   1.083       .  S
C292        C491   1.474       .  S
C292        C293   1.403       .  A
C292        C297   1.398       .  A
C293        C294   1.408       .  A
C293        H298   1.082       .  S
C294       C2075   1.491       .  S
C294        C295   1.407       .  A
C295        C296   1.404       .  A
C295        H299   1.082       .  S
C296        C692   1.494       .  S
C296        C297   1.403       .  A
C297        H300   1.083       .  S
C301       C1931   1.488       .  S
C301        C302   1.413       .  A
C301        C306   1.406       .  A
C302        C303   1.413       .  A
C302        H307   1.083       .  S
C303        C467   1.489       .  S
C303        C304   1.402       .  A
C304        C305   1.397       .  A
C304        H308   1.085       .  S
C305        C611   1.474       .  S
C305        C306   1.397       .  A
C306        H309   1.084       .  S
C310       C1580   1.495       .  S
C310        C311   1.411       .  A
C310        C315   1.404       .  A
C311        C312   1.407   1_565  A
C311        H316   1.083       .  S
C312        C443   1.482       .  S
C312        C313   1.401       .  A
C313        C314   1.403   1_545  A
C313        H317   1.083       .  S
C314        C596   1.497       .  S
C314        C315   1.403       .  A
C315        H318   1.078       .  S
C319       C1643   1.490       .  S
C319        C320   1.403       .  A
C319        C324   1.414       .  A
C320        C321   1.400       .  A
C320        H325   1.084       .  S
C321        C572   1.488       .  S
C321        C322   1.403   1_655  A
C322        C323   1.409       .  A
C322        H326   1.083       .  S
C323        C428   1.508       .  S
C323        C324   1.417   1_455  A
C324        H327   1.083       .  S
O328        C336   1.283       .  A
O328       Co348   2.019       .  S
O329        C337   1.266       .  A
O329       Co349   1.992       .  S
O330        C338   1.275       .  A
O330       Co350   2.008       .  S
O331        C339   1.300       .  A
O331       Co351   2.122       .  S
O332        C338   1.268       .  A
O332       Co349   1.975       .  S
O333        C339   1.268       .  A
O333       Co348   1.889       .  S
O334        C337   1.262       .  A
O334       Co351   1.988       .  S
O335        C336   1.274       .  A
O335       Co350   1.999       .  S
C336        C524   1.502       .  S
C337        C731   1.477       .  S
C338        C548   1.473       .  S
C339        C836   1.484       .  S
O340        C353   1.303       .  A
O340       Co348   2.145       .  S
O341        C354   1.270       .  A
O341       Co349   2.001       .  S
O342        C355   1.274       .  A
O342       Co350   2.009       .  S
O343        C356   1.273       .  A
O343       Co351   1.996       .  S
O344        C356   1.275       .  A
O344       Co349   2.022       .  S
O345        C355   1.260       .  A
O345       Co348   1.971       .  S
O346        C353   1.265       .  A
O346       Co351   1.880       .  S
O347        C354   1.271       .  A
O347       Co350   1.980       .  S
Co348       O352   1.994       .  S
Co349       O352   2.049       .  S
Co350       O352   2.038       .  S
Co351       O352   1.991       .  S
C353       C1340   1.479       .  S
C354       C1028   1.476       .  S
C355       C1364   1.485       .  S
C356       C1100   1.484       .  S
O357        C365   1.274       .  A
O357       Co377   1.879       .  S
O358        C366   1.269       .  A
O358       Co378   1.983       .  S
O359        C367   1.269       .  A
O359       Co379   1.980       .  S
O360        C368   1.261       .  A
O360       Co380   1.969       .  S
O361        C367   1.271       .  A
O361       Co378   2.029       .  S
O362        C368   1.272       .  A
O362       Co377   2.032       .  S
O363        C366   1.270       .  A
O363       Co380   1.991       .  S
O364        C365   1.308       .  A
O364       Co379   2.107       .  S
C365        C452   1.484       .  S
C366       C1052   1.472       .  S
C367        C995   1.495       .  S
C368        C476   1.491       .  S
O369        C382   1.272       .  A
O369       Co377   1.990       .  S
O370        C383   1.273       .  A
O370       Co378   1.884       .  S
O371        C384   1.274       .  A
O371       Co379   1.862       .  S
O372        C385   1.273       .  A
O372       Co380   2.001       .  S
O373        C385   1.274       .  A
O373       Co378   1.984       .  S
O374        C384   1.310       .  A
O374       Co377   2.104       .  S
O375        C382   1.276       .  A
O375       Co380   2.019       .  S
O376        C383   1.302       .  A
O376       Co379   2.119       .  S
Co377       O381   1.993       .  S
Co378       O381   1.898       .  S
Co379       O381   2.028       .  S
Co380       O381   2.020       .  S
C382        C707   1.493       .  S
C383       C1379   1.480       .  S
C384       C1412   1.481       .  S
C385        C788   1.479       .  S
O386        C394   1.275       .  A
O386       Co406   1.997       .  S
O387        C395   1.273       .  A
O387       Co407   1.920       .  S
O388        C396   1.274       .  A
O388       Co408   2.002       .  S
O389        C397   1.265       .  A
O389       Co409   1.987       .  S
O390        C396   1.276       .  A
O390       Co407   1.989       .  S
O391        C397   1.265       .  A
O391       Co406   1.983       .  S
O392        C395   1.294       .  A
O392       Co409   2.105       .  S
O393        C394   1.275       .  A
O393       Co408   2.015       .  S
C394        C764   1.482       .  S
C395       C1076   1.503       .  S
C396        C803   1.485       .  S
C397       C1124   1.479       .  S
O398        C411   1.281       .  A
O398       Co406   2.027       .  S
O399        C412   1.269       .  A
O399       Co407   1.989       .  S
O400        C413   1.274       .  A
O400       Co408   2.000       .  S
O401        C414   1.267       .  A
O401       Co409   1.916       .  S
O402        C414   1.294       .  A
O402       Co407   2.124       .  S
O403        C413   1.267       .  A
O403       Co406   1.995       .  S
O404        C411   1.273       .  A
O404       Co409   1.980       .  S
O405        C412   1.272       .  A
O405       Co408   1.993       .  S
Co406       O410   2.032       .  S
Co407       O410   2.013       .  S
Co408       O410   2.030       .  S
Co409       O410   2.000       .  S
C411       C1283   1.474       .  S
C412        C500   1.468       .  S
C413       C1307   1.492       .  S
C414        C419   1.502       .  S
C415        C416   1.401       .  A
C415        C420   1.400       .  A
C415        H425   1.082       .  S
C416        C421   1.504       .  S
C416        C417   1.419       .  A
C417        C418   1.412       .  A
C417        S422   1.804       .  S
C418        C419   1.409       .  A
C418        H423   1.084       .  S
C419        C420   1.421       .  A
C420        S424   1.805       .  S
C421        C426   1.416       .  A
C421        C430   1.404       .  A
S422        H438   1.405       .  S
S424        H435   1.406       .  S
C426        C427   1.414       .  A
C426        S431   1.805       .  S
C427        C428   1.411       .  A
C427        H432   1.082       .  S
C428        C429   1.421       .  A
C429        C430   1.398       .  A
C429        S433   1.806       .  S
C430        H434   1.084       .  S
S431        H436   1.406       .  S
S433        H437   1.407       .  S
C439        C440   1.400       .  A
C439        C444   1.400       .  A
C439        H449   1.084       .  S
C440        C445   1.483       .  S
C440        C441   1.415       .  A
C441        C442   1.402       .  A
C441        S446   1.804       .  S
C442        C443   1.401       .  A
C442        H447   1.084       .  S
C443        C444   1.416       .  A
C444        S448   1.805       .  S
C445        C450   1.408       .  A
C445        C454   1.403       .  A
S446        H462   1.406       .  S
S448        H459   1.406       .  S
C450        C451   1.400       .  A
C450        S455   1.808       .  S
C451        C452   1.406       .  A
C451        H456   1.083       .  S
C452        C453   1.416       .  A
C453        C454   1.405       .  A
C453        S457   1.798       .  S
C454        H458   1.084       .  S
S455        H460   1.407       .  S
S457        H461   1.406       .  S
C463        C464   1.407       .  A
C463        C468   1.402       .  A
C463        H473   1.084       .  S
C464        C469   1.489       .  S
C464        C465   1.411       .  A
C465        C466   1.402       .  A
C465        S470   1.803       .  S
C466        C467   1.407       .  A
C466        H471   1.084       .  S
C467        C468   1.414       .  A
C468        S472   1.803       .  S
C469        C474   1.409       .  A
C469        C478   1.403       .  A
S470        H486   1.406       .  S
S472        H483   1.406       .  S
C474        C475   1.402       .  A
C474        S479   1.804       .  S
C475        C476   1.407       .  A
C475        H480   1.082       .  S
C476        C477   1.419       .  A
C477        C478   1.405       .  A
C477        S481   1.799       .  S
C478        H482   1.084       .  S
S479        H484   1.407       .  S
S481        H485   1.407       .  S
C487        C488   1.399       .  A
C487        C492   1.396       .  A
C487        H497   1.084       .  S
C488        C493   1.477       .  S
C488        C489   1.415       .  A
C489        C490   1.402       .  A
C489        S494   1.805       .  S
C490        C491   1.401       .  A
C490        H495   1.084       .  S
C491        C492   1.414       .  A
C492        S496   1.805       .  S
C493        C498   1.410       .  A
C493        C502   1.400       .  A
S494        H510   1.406       .  S
S496        H507   1.405       .  S
C498        C499   1.403       .  A
C498        S503   1.807       .  S
C499        C500   1.402       .  A
C499        H504   1.082       .  S
C500        C501   1.413       .  A
C501        C502   1.398       .  A
C501        S505   1.802       .  S
C502        H506   1.084       .  S
S503        H508   1.407       .  S
S505        H509   1.405       .  S
C511        C512   1.409       .  A
C511        C516   1.414       .  A
C511        H521   1.083       .  S
C512        C517   1.501       .  S
C512        C513   1.413       .  A
C513        C514   1.402       .  A
C513        S518   1.799       .  S
C514        C515   1.408       .  A
C514        H519   1.084       .  S
C515        C516   1.419       .  A
C516        S520   1.802       .  S
C517        C522   1.406       .  A
C517        C526   1.412       .  A
S518        H534   1.403       .  S
S520        H531   1.406       .  S
C522        C523   1.403       .  A
C522        S527   1.808       .  S
C523        C524   1.413       .  A
C523        H528   1.083       .  S
C524        C525   1.415       .  A
C525        C526   1.417       .  A
C525        S529   1.800       .  S
C526        H530   1.083       .  S
S527        H532   1.407       .  S
S529        H533   1.406       .  S
C535        C536   1.399       .  A
C535        C540   1.399       .  A
C535        H545   1.084       .  S
C536        C541   1.479       .  S
C536        C537   1.415       .  A
C537        C538   1.399       .  A
C537        S542   1.805       .  S
C538        C539   1.402       .  A
C538        H543   1.084       .  S
C539        C540   1.417       .  A
C540        S544   1.805       .  S
C541        C546   1.408       .  A
C541        C550   1.401       .  A
S542        H558   1.405       .  S
S544        H555   1.407       .  S
C546        C547   1.399       .  A
C546        S551   1.804       .  S
C547        C548   1.402       .  A
C547        H552   1.084       .  S
C548        C549   1.415       .  A
C549        C550   1.402       .  A
C549        S553   1.800       .  S
C550        H554   1.084       .  S
S551        H556   1.407       .  S
S553        H557   1.406       .  S
C559        C560   1.402       .  A
C559        C564   1.402       .  A
C559        H569   1.084       .  S
C560        C565   1.480       .  S
C560        C561   1.410   1_655  A
C561        C562   1.397       .  A
C561        S566   1.804       .  S
C562        C563   1.405       .  A
C562        H567   1.082       .  S
C563        C564   1.418   1_455  A
C564        S568   1.807       .  S
C565        C570   1.407   1_655  A
C565        C574   1.402       .  A
S566        H582   1.405       .  S
S568        H579   1.403       .  S
C570        C571   1.402       .  A
C570        S575   1.807       .  S
C571        C572   1.407   1_455  A
C571        H576   1.082       .  S
C572        C573   1.416       .  A
C573        C574   1.402       .  A
C573        S577   1.803       .  S
C574        H578   1.084       .  S
S575        H580   1.407       .  S
S577        H581   1.406       .  S
C583        C584   1.407       .  A
C583        C588   1.395   1_565  A
C583        H593   1.083   1_565  S
C584        C589   1.488       .  S
C584        C585   1.416       .  A
C585        C586   1.394       .  A
C585        S590   1.805       .  S
C586        C587   1.404       .  A
C586        H591   1.083       .  S
C587        C588   1.411   1_565  A
C588        S592   1.805       .  S
C589        C594   1.413   1_565  A
C589        C598   1.404       .  A
S590        H606   1.405   1_565  S
S592        H603   1.404   1_655  S
C594        C595   1.398       .  A
C594        S599   1.811       .  S
C595        C596   1.409   1_545  A
C595        H600   1.080       .  S
C596        C597   1.418       .  A
C597        C598   1.396       .  A
C597        S601   1.806       .  S
C598        H602   1.082       .  S
S599        H604   1.407       .  S
S601        H605   1.407       .  S
C607        C608   1.403       .  A
C607        C612   1.402       .  A
C607        H617   1.084       .  S
C608        C613   1.478       .  S
C608        C609   1.410       .  A
C609        C610   1.396       .  A
C609        S614   1.801       .  S
C610        C611   1.402       .  A
C610        H615   1.084       .  S
C611        C612   1.413       .  A
C612        S616   1.804       .  S
C613        C618   1.407       .  A
C613        C622   1.402       .  A
S614        H630   1.404       .  S
S616        H627   1.405       .  S
C618        C619   1.398       .  A
C618        S623   1.807       .  S
C619        C620   1.406       .  A
C619        H624   1.082       .  S
C620        C621   1.417       .  A
C621        C622   1.402       .  A
C621        S625   1.805       .  S
C622        H626   1.084       .  S
S623        H628   1.407       .  S
S625        H629   1.404   1_545  S
C631        C632   1.406       .  A
C631        C636   1.401       .  A
C631        H641   1.083   1_455  S
C632        C637   1.489       .  S
C632        C633   1.413       .  A
C633        C634   1.394       .  A
C633        S638   1.806       .  S
C634        C635   1.408       .  A
C634        H639   1.082       .  S
C635        C636   1.418       .  A
C636        S640   1.804   1_455  S
C637        C642   1.411       .  A
C637        C646   1.405       .  A
S638        H654   1.407       .  S
S640        H651   1.407   1_655  S
C642        C643   1.399       .  A
C642        S647   1.808       .  S
C643        C644   1.407       .  A
C643        H648   1.081       .  S
C644        C645   1.418       .  A
C645        C646   1.396       .  A
C645        S649   1.807       .  S
C646        H650   1.084       .  S
S647        H652   1.407       .  S
S649        H653   1.400       .  S
C655        C656   1.400       .  A
C655        C660   1.400       .  A
C655        H665   1.084       .  S
C656        C661   1.483       .  S
C656        C657   1.412   1_545  A
C657        C658   1.400       .  A
C657        S662   1.803       .  S
C658        C659   1.406   1_565  A
C658        H663   1.084       .  S
C659        C660   1.420       .  A
C660        S664   1.803       .  S
C661        C666   1.409   1_545  A
C661        C670   1.401       .  A
S662        H678   1.405       .  S
S664        H675   1.400       .  S
C666        C667   1.406       .  A
C666        S671   1.806       .  S
C667        C668   1.405   1_565  A
C667        H672   1.083       .  S
C668        C669   1.417       .  A
C669        C670   1.401       .  A
C669        S673   1.804       .  S
C670        H674   1.084       .  S
S671        H676   1.407       .  S
S673        H677   1.406       .  S
C679        C680   1.405       .  A
C679        C684   1.398       .  A
C679        H689   1.083       .  S
C680        C685   1.487       .  S
C680        C681   1.414       .  A
C681        C682   1.393       .  A
C681        S686   1.805       .  S
C682        C683   1.403       .  A
C682        H687   1.081       .  S
C683        C684   1.413       .  A
C684        S688   1.799       .  S
C685        C690   1.412       .  A
C685        C694   1.403       .  A
S686        H702   1.407       .  S
S688        H699   1.404   1_565  S
C690        C691   1.401       .  A
C690        S695   1.809       .  S
C691        C692   1.410       .  A
C691        H696   1.081       .  S
C692        C693   1.418       .  A
C693        C694   1.395       .  A
C693        S697   1.805       .  S
C694        H698   1.084       .  S
S695        H700   1.407       .  S
S697        H701   1.407       .  S
C703        C704   1.395       .  A
C703        C708   1.398       .  A
C703        H713   1.083       .  S
C704        C709   1.484       .  S
C704        C705   1.414       .  A
C705        C706   1.409       .  A
C705        S710   1.802       .  S
C706        C707   1.407       .  A
C706        H711   1.083       .  S
C707        C708   1.417       .  A
C708        S712   1.799       .  S
C709        C714   1.409       .  A
C709        C718   1.400       .  A
S710        H726   1.405       .  S
S712        H723   1.407       .  S
C714        C715   1.408       .  A
C714        S719   1.805       .  S
C715        C716   1.407       .  A
C715        H720   1.083       .  S
C716        C717   1.419       .  A
C717        C718   1.399       .  A
C717        S721   1.806       .  S
C718        H722   1.084       .  S
S719        H724   1.407       .  S
S721        H725   1.407       .  S
C727        C728   1.404       .  A
C727        C732   1.402       .  A
C727        H737   1.084       .  S
C728        C733   1.487       .  S
C728        C729   1.413       .  A
C729        C730   1.403       .  A
C729        S734   1.804       .  S
C730        C731   1.405       .  A
C730        H735   1.084       .  S
C731        C732   1.411       .  A
C732        S736   1.800       .  S
C733        C738   1.413       .  A
C733        C742   1.403       .  A
S734        H750   1.406       .  S
S736        H747   1.406       .  S
C738        C739   1.404       .  A
C738        S743   1.806       .  S
C739        C740   1.401       .  A
C739        H744   1.083       .  S
C740        C741   1.413       .  A
C741        C742   1.403       .  A
C741        S745   1.804       .  S
C742        H746   1.084       .  S
S743        H748   1.407       .  S
S745        H749   1.404       .  S
C751        C752   1.405       .  A
C751        C756   1.404       .  A
C751        H761   1.084       .  S
C752        C757   1.488       .  S
C752        C753   1.412       .  A
C753        C754   1.404       .  A
C753        S758   1.803       .  S
C754        C755   1.404       .  A
C754        H759   1.084       .  S
C755        C756   1.414       .  A
C756        S760   1.806       .  S
C757        C762   1.412       .  A
C757        C766   1.400       .  A
S758        H774   1.405       .  S
S760        H771   1.404       .  S
C762        C763   1.410       .  A
C762        S767   1.804       .  S
C763        C764   1.403       .  A
C763        H768   1.081       .  S
C764        C765   1.412       .  A
C765        C766   1.403       .  A
C765        S769   1.801       .  S
C766        H770   1.083       .  S
S767        H772   1.407       .  S
S769        H773   1.406       .  S
C775        C776   1.405       .  A
C775        C780   1.401       .  A
C775        H785   1.084       .  S
C776        C781   1.483       .  S
C776        C777   1.411       .  A
C777        C778   1.401       .  A
C777        S782   1.804       .  S
C778        C779   1.407       .  A
C778        H783   1.084       .  S
C779        C780   1.412       .  A
C780        S784   1.803       .  S
C781        C786   1.411       .  A
C781        C790   1.400       .  A
S782        H798   1.405       .  S
S784        H795   1.406       .  S
C786        C787   1.408       .  A
C786        S791   1.805       .  S
C787        C788   1.406       .  A
C787        H792   1.083       .  S
C788        C789   1.411       .  A
C789        C790   1.396       .  A
C789        S793   1.794       .  S
C790        H794   1.084       .  S
S791        H796   1.407       .  S
S793        H797   1.402       .  S
C799        C800   1.403       .  A
C799        C804   1.405       .  A
C799        H809   1.084       .  S
C800        C805   1.486       .  S
C800        C801   1.411       .  A
C801        C802   1.397       .  A
C801        S806   1.805       .  S
C802        C803   1.407       .  A
C802        H807   1.083       .  S
C803        C804   1.416       .  A
C804        S808   1.795       .  S
C805        C810   1.414       .  A
C805        C814   1.399       .  A
S806        H822   1.406       .  S
S808        H819   1.406       .  S
C810        C811   1.408       .  A
C810        S815   1.807       .  S
C811        C812   1.404       .  A
C811        H816   1.083       .  S
C812        C813   1.416       .  A
C813        C814   1.399       .  A
C813        S817   1.802       .  S
C814        H818   1.084       .  S
S815        H820   1.407       .  S
S817        H821   1.406       .  S
C823        C824   1.401       .  A
C823        C828   1.402       .  A
C823        H833   1.084       .  S
C824        C829   1.482       .  S
C824        C825   1.410       .  A
C825        C826   1.397       .  A
C825        S830   1.802       .  S
C826        C827   1.406       .  A
C826        H831   1.083       .  S
C827        C828   1.419       .  A
C828        S832   1.804       .  S
C829        C834   1.409       .  A
C829        C838   1.403       .  A
S830        H846   1.405       .  S
S832        H843   1.407       .  S
C834        C835   1.398       .  A
C834        S839   1.809       .  S
C835        C836   1.406       .  A
C835        H840   1.082       .  S
C836        C837   1.416       .  A
C837        C838   1.404       .  A
C837        S841   1.801       .  S
C838        H842   1.084       .  S
S839        H844   1.407       .  S
S841        H845   1.407       .  S
C847        C848   1.408       .  A
C847        C852   1.406       .  A
C847        H857   1.082       .  S
C848        C853   1.500       .  S
C848        C849   1.419       .  A
C849        C850   1.397       .  A
C849        S854   1.806       .  S
C850        C851   1.402       .  A
C850        H855   1.081       .  S
C851        C852   1.410       .  A
C852        S856   1.801       .  S
C853        C858   1.415       .  A
C853        C862   1.404       .  A
S854        H870   1.405       .  S
S856        H867   1.406       .  S
C858        C859   1.406       .  A
C858        S863   1.810       .  S
C859        C860   1.412       .  A
C859        H864   1.081       .  S
C860        C861   1.422       .  A
C861        C862   1.400       .  A
C861        S865   1.800       .  S
C862        H866   1.083       .  S
S863        H868   1.407       .  S
S865        H869   1.407       .  S
C871        C872   1.401       .  A
C871        C876   1.397       .  A
C871        H881   1.084       .  S
C872        C877   1.468       .  S
C872        C873   1.411       .  A
C873        C874   1.395       .  A
C873        S878   1.806       .  S
C874        C875   1.402       .  A
C874        H879   1.084       .  S
C875        C876   1.412       .  A
C876        S880   1.804       .  S
C877        C882   1.405       .  A
C877        C886   1.399       .  A
S878        H894   1.403       .  S
S880        H891   1.406       .  S
C882        C883   1.397       .  A
C882        S887   1.805       .  S
C883        C884   1.404       .  A
C883        H888   1.082       .  S
C884        C885   1.416       .  A
C885        C886   1.395       .  A
C885        S889   1.808       .  S
C886        H890   1.084       .  S
S887        H892   1.407       .  S
S889        H893   1.403       .  S
C895        C896   1.400       .  A
C895        C900   1.399       .  A
C895        H905   1.084       .  S
C896        C901   1.476       .  S
C896        C897   1.410       .  A
C897        C898   1.395       .  A
C897        S902   1.803       .  S
C898        C899   1.404       .  A
C898        H903   1.084       .  S
C899        C900   1.417       .  A
C900        S904   1.803       .  S
C901        C906   1.408       .  A
C901        C910   1.401       .  A
S902        H918   1.405       .  S
S904        H915   1.402       .  S
C906        C907   1.401       .  A
C906        S911   1.808       .  S
C907        C908   1.404       .  A
C907        H912   1.083       .  S
C908        C909   1.414       .  A
C909        C910   1.404       .  A
C909        S913   1.807       .  S
C910        H914   1.083       .  S
S911        H916   1.406       .  S
S913        H917   1.407       .  S
C919        C920   1.405       .  A
C919        C924   1.398       .  A
C919        H929   1.084       .  S
C920        C925   1.490       .  S
C920        C921   1.414       .  A
C921        C922   1.397       .  A
C921        S926   1.804       .  S
C922        C923   1.406       .  A
C922        H927   1.083       .  S
C923        C924   1.416       .  A
C924        S928   1.799       .  S
C925        C930   1.413       .  A
C925        C934   1.403       .  A
S926        H942   1.407       .  S
S928        H939   1.395       .  S
C930        C931   1.402       .  A
C930        S935   1.810       .  S
C931        C932   1.409       .  A
C931        H936   1.081       .  S
C932        C933   1.420       .  A
C933        C934   1.398       .  A
C933        S937   1.805       .  S
C934        H938   1.083       .  S
S935        H940   1.407       .  S
S937        H941   1.407       .  S
C943        C944   1.398       .  A
C943        C948   1.397       .  A
C943        H953   1.084       .  S
C944        C949   1.477       .  S
C944        C945   1.409       .  A
C945        C946   1.399       .  A
C945        S950   1.803       .  S
C946        C947   1.407       .  A
C946        H951   1.084       .  S
C947        C948   1.420       .  A
C948        S952   1.804       .  S
C949        C954   1.407       .  A
C949        C958   1.402       .  A
S950        H966   1.405       .  S
S952        H963   1.396       .  S
C954        C955   1.400       .  A
C954        S959   1.807       .  S
C955        C956   1.406       .  A
C955        H960   1.083       .  S
C956        C957   1.414       .  A
C957        C958   1.400       .  A
C957        S961   1.804       .  S
C958        H962   1.082       .  S
S959        H964   1.407       .  S
S961        H965   1.406       .  S
C967        C968   1.400       .  A
C967        C972   1.400       .  A
C967        H977   1.084       .  S
C968        C973   1.477       .  S
C968        C969   1.409       .  A
C969        C970   1.396       .  A
C969        S974   1.805       .  S
C970        C971   1.407       .  A
C970        H975   1.083       .  S
C971        C972   1.420       .  A
C972        S976   1.808       .  S
C973        C978   1.407       .  A
C973        C982   1.401       .  A
S974        H990   1.405       .  S
S976        H987   1.400       .  S
C978        C979   1.400       .  A
C978        S983   1.806       .  S
C979        C980   1.407       .  A
C979        H984   1.083       .  S
C980        C981   1.417       .  A
C981        C982   1.401       .  A
C981        S985   1.804       .  S
C982        H986   1.084       .  S
S983        H988   1.407       .  S
S985        H989   1.406       .  S
C991        C992   1.404       .  A
C991        C996   1.409       .  A
C991       H1001   1.084       .  S
C992        C997   1.492       .  S
C992        C993   1.411       .  A
C993        C994   1.401       .  A
C993        S998   1.804       .  S
C994        C995   1.408       .  A
C994        H999   1.081       .  S
C995        C996   1.420       .  A
C996       S1000   1.800       .  S
C997       C1002   1.409       .  A
C997       C1006   1.405       .  A
S998       H1014   1.405       .  S
S1000      H1011   1.407       .  S
C1002      C1003   1.408       .  A
C1002      S1007   1.805       .  S
C1003      C1004   1.407       .  A
C1003      H1008   1.083       .  S
C1004      C1005   1.415       .  A
C1005      C1006   1.405       .  A
C1005      S1009   1.803       .  S
C1006      H1010   1.084       .  S
S1007      H1012   1.407       .  S
S1009      H1013   1.405       .  S
C1015      C1016   1.404       .  A
C1015      C1020   1.396       .  A
C1015      H1025   1.084       .  S
C1016      C1021   1.482       .  S
C1016      C1017   1.412       .  A
C1017      C1018   1.400       .  A
C1017      S1022   1.805       .  S
C1018      C1019   1.409       .  A
C1018      H1023   1.084       .  S
C1019      C1020   1.414       .  A
C1020      S1024   1.803       .  S
C1021      C1026   1.411       .  A
C1021      C1030   1.401       .  A
S1022      H1038   1.405       .  S
S1024      H1035   1.407       .  S
C1026      C1027   1.405       .  A
C1026      S1031   1.806       .  S
C1027      C1028   1.405       .  A
C1027      H1032   1.083       .  S
C1028      C1029   1.415       .  A
C1029      C1030   1.396       .  A
C1029      S1033   1.809       .  S
C1030      H1034   1.083       .  S
S1031      H1036   1.407       .  S
S1033      H1037   1.407       .  S
C1039      C1040   1.400       .  A
C1039      C1044   1.395       .  A
C1039      H1049   1.084       .  S
C1040      C1045   1.473       .  S
C1040      C1041   1.412       .  A
C1041      C1042   1.399       .  A
C1041      S1046   1.804       .  S
C1042      C1043   1.403       .  A
C1042      H1047   1.084       .  S
C1043      C1044   1.414       .  A
C1044      S1048   1.806       .  S
C1045      C1050   1.408       .  A
C1045      C1054   1.404       .  A
S1046      H1062   1.405       .  S
S1048      H1059   1.406       .  S
C1050      C1051   1.392       .  A
C1050      S1055   1.805       .  S
C1051      C1052   1.405       .  A
C1051      H1056   1.084       .  S
C1052      C1053   1.415       .  A
C1053      C1054   1.403       .  A
C1053      S1057   1.806       .  S
C1054      H1058   1.084       .  S
S1055      H1060   1.405       .  S
S1057      H1061   1.401       .  S
C1063      C1064   1.405       .  A
C1063      C1068   1.405       .  A
C1063      H1073   1.084       .  S
C1064      C1069   1.489       .  S
C1064      C1065   1.412       .  A
C1065      C1066   1.403       .  A
C1065      S1070   1.803       .  S
C1066      C1067   1.408       .  A
C1066      H1071   1.084       .  S
C1067      C1068   1.415       .  A
C1068      S1072   1.802       .  S
C1069      C1074   1.406       .  A
C1069      C1078   1.404       .  A
S1070      H1086   1.403       .  S
S1072      H1083   1.406       .  S
C1074      C1075   1.401       .  A
C1074      S1079   1.806       .  S
C1075      C1076   1.412       .  A
C1075      H1080   1.081       .  S
C1076      C1077   1.420       .  A
C1077      C1078   1.409       .  A
C1077      S1081   1.796       .  S
C1078      H1082   1.083       .  S
S1079      H1084   1.406       .  S
S1081      H1085   1.406       .  S
C1087      C1088   1.406       .  A
C1087      C1092   1.403       .  A
C1087      H1097   1.084       .  S
C1088      C1093   1.496       .  S
C1088      C1089   1.417       .  A
C1089      C1090   1.406       .  A
C1089      S1094   1.803       .  S
C1090      C1091   1.404       .  A
C1090      H1095   1.084       .  S
C1091      C1092   1.414       .  A
C1092      S1096   1.804       .  S
C1093      C1098   1.416       .  A
C1093      C1102   1.402       .  A
S1094      H1110   1.406       .  S
S1096      H1107   1.406       .  S
C1098      C1099   1.412       .  A
C1098      S1103   1.806       .  S
C1099      C1100   1.403       .  A
C1099      H1104   1.082       .  S
C1100      C1101   1.411       .  A
C1101      C1102   1.403       .  A
C1101      S1105   1.803       .  S
C1102      H1106   1.083       .  S
S1103      H1108   1.407       .  S
S1105      H1109   1.406       .  S
C1111      C1112   1.399       .  A
C1111      C1116   1.399       .  A
C1111      H1121   1.084       .  S
C1112      C1117   1.480       .  S
C1112      C1113   1.411       .  A
C1113      C1114   1.403       .  A
C1113      S1118   1.807       .  S
C1114      C1115   1.404       .  A
C1114      H1119   1.083       .  S
C1115      C1116   1.417       .  A
C1116      S1120   1.804       .  S
C1117      C1122   1.407       .  A
C1117      C1126   1.402       .  A
S1118      H1134   1.406       .  S
S1120      H1131   1.407       .  S
C1122      C1123   1.397       .  A
C1122      S1127   1.807       .  S
C1123      C1124   1.404       .  A
C1123      H1128   1.082       .  S
C1124      C1125   1.417       .  A
C1125      C1126   1.407       .  A
C1125      S1129   1.808       .  S
C1126      H1130   1.083       .  S
S1127      H1132   1.406       .  S
S1129      H1133   1.407       .  S
C1135      C1136   1.403       .  A
C1135      C1140   1.401       .  A
C1135      H1145   1.084       .  S
C1136      C1141   1.480       .  S
C1136      C1137   1.411       .  A
C1137      C1138   1.395       .  A
C1137      S1142   1.804       .  S
C1138      C1139   1.403       .  A
C1138      H1143   1.082       .  S
C1139      C1140   1.414       .  A
C1140      S1144   1.804   1_455  S
C1141      C1146   1.410       .  A
C1141      C1150   1.402       .  A
S1142      H1158   1.406       .  S
S1144      H1155   1.405       .  S
C1146      C1147   1.404       .  A
C1146      S1151   1.806       .  S
C1147      C1148   1.403       .  A
C1147      H1152   1.083       .  S
C1148      C1149   1.412       .  A
C1149      C1150   1.398       .  A
C1149      S1153   1.805       .  S
C1150      H1154   1.084       .  S
S1151      H1156   1.406       .  S
S1153      H1157   1.403       .  S
C1159      C1160   1.405       .  A
C1159      C1164   1.399       .  A
C1159      H1169   1.084       .  S
C1160      C1165   1.492       .  S
C1160      C1161   1.415       .  A
C1161      C1162   1.397       .  A
C1161      S1166   1.804       .  S
C1162      C1163   1.405       .  A
C1162      H1167   1.083       .  S
C1163      C1164   1.418       .  A
C1164      S1168   1.807       .  S
C1165      C1170   1.414   1_556  A
C1165      C1174   1.404       .  A
S1166      H1182   1.407   1_556  S
S1168      H1179   1.403   1_556  S
C1170      C1171   1.401       .  A
C1170      S1175   1.810       .  S
C1171      C1172   1.409   1_554  A
C1171      H1176   1.081       .  S
C1172      C1173   1.420       .  A
C1173      C1174   1.400       .  A
C1173      S1177   1.804       .  S
C1174      H1178   1.083       .  S
S1175      H1180   1.407       .  S
S1177      H1181   1.407       .  S
C1183      C1184   1.400       .  A
C1183      C1188   1.399       .  A
C1183      H1193   1.083       .  S
C1184      C1189   1.476       .  S
C1184      C1185   1.411   1_455  A
C1185      C1186   1.397       .  A
C1185      S1190   1.803       .  S
C1186      C1187   1.404       .  A
C1186      H1191   1.083       .  S
C1187      C1188   1.412   1_655  A
C1188      S1192   1.803       .  S
C1189      C1194   1.409       .  A
C1189      C1198   1.404       .  A
S1190      H1206   1.406       .  S
S1192      H1203   1.406       .  S
C1194      C1195   1.399       .  A
C1194      S1199   1.808   1_455  S
C1195      C1196   1.402       .  A
C1195      H1200   1.083       .  S
C1196      C1197   1.410       .  A
C1197      C1198   1.400       .  A
C1197      S1201   1.802       .  S
C1198      H1202   1.084       .  S
S1199      H1204   1.407       .  S
S1201      H1205   1.406       .  S
C1207      C1208   1.400       .  A
C1207      C1212   1.400       .  A
C1207      H1217   1.083       .  S
C1208      C1213   1.471       .  S
C1208      C1209   1.407       .  A
C1209      C1210   1.397       .  A
C1209      S1214   1.806       .  S
C1210      C1211   1.402       .  A
C1210      H1215   1.082       .  S
C1211      C1212   1.409       .  A
C1212      S1216   1.803       .  S
C1213      C1218   1.406       .  A
C1213      C1222   1.401       .  A
S1214      H1230   1.407       .  S
S1216      H1227   1.407       .  S
C1218      C1219   1.396       .  A
C1218      S1223   1.806       .  S
C1219      C1220   1.404       .  A
C1219      H1224   1.083       .  S
C1220      C1221   1.414       .  A
C1221      C1222   1.400       .  A
C1221      S1225   1.804       .  S
C1222      H1226   1.084       .  S
S1223      H1228   1.407       .  S
S1225      H1229   1.406       .  S
C1231      C1232   1.406   1_556  A
C1231      C1236   1.404       .  A
C1231      H1241   1.083       .  S
C1232      C1237   1.494       .  S
C1232      C1233   1.415       .  A
C1233      C1234   1.399       .  A
C1233      S1238   1.804       .  S
C1234      C1235   1.403       .  A
C1234      H1239   1.082       .  S
C1235      C1236   1.416   1_554  A
C1236      S1240   1.806       .  S
C1237      C1242   1.415       .  A
C1237      C1246   1.405       .  A
S1238      H1254   1.407       .  S
S1240      H1251   1.402       .  S
C1242      C1243   1.407       .  A
C1242      S1247   1.806       .  S
C1243      C1244   1.403       .  A
C1243      H1248   1.083       .  S
C1244      C1245   1.414       .  A
C1245      C1246   1.401       .  A
C1245      S1249   1.809   1_554  S
C1246      H1250   1.084   1_554  S
S1247      H1252   1.406       .  S
S1249      H1253   1.401       .  S
C1255      C1256   1.401       .  A
C1255      C1260   1.398       .  A
C1255      H1265   1.083       .  S
C1256      C1261   1.471       .  S
C1256      C1257   1.411       .  A
C1257      C1258   1.395       .  A
C1257      S1262   1.804       .  S
C1258      C1259   1.401       .  A
C1258      H1263   1.083       .  S
C1259      C1260   1.409       .  A
C1260      S1264   1.807   1_655  S
C1261      C1266   1.408   1_655  A
C1261      C1270   1.399       .  A
S1262      H1278   1.406       .  S
S1264      H1275   1.406       .  S
C1266      C1267   1.398       .  A
C1266      S1271   1.806       .  S
C1267      C1268   1.404   1_455  A
C1267      H1272   1.083       .  S
C1268      C1269   1.416       .  A
C1269      C1270   1.396       .  A
C1269      S1273   1.805       .  S
C1270      H1274   1.084       .  S
S1271      H1276   1.406       .  S
S1273      H1277   1.406       .  S
C1279      C1280   1.402       .  A
C1279      C1284   1.397       .  A
C1279      H1289   1.084       .  S
C1280      C1285   1.488       .  S
C1280      C1281   1.417       .  A
C1281      C1282   1.405       .  A
C1281      S1286   1.803       .  S
C1282      C1283   1.402       .  A
C1282      H1287   1.084       .  S
C1283      C1284   1.411       .  A
C1284      S1288   1.800       .  S
C1285      C1290   1.415       .  A
C1285      C1294   1.401       .  A
S1286      H1302   1.406       .  S
S1288      H1299   1.405       .  S
C1290      C1291   1.405       .  A
C1290      S1295   1.808       .  S
C1291      C1292   1.402       .  A
C1291      H1296   1.083       .  S
C1292      C1293   1.418       .  A
C1293      C1294   1.401       .  A
C1293      S1297   1.805       .  S
C1294      H1298   1.084       .  S
S1295      H1300   1.407       .  S
S1297      H1301   1.406       .  S
C1303      C1304   1.399       .  A
C1303      C1308   1.397       .  A
C1303      H1313   1.084       .  S
C1304      C1309   1.492       .  S
C1304      C1305   1.415       .  A
C1305      C1306   1.408       .  A
C1305      S1310   1.803       .  S
C1306      C1307   1.408       .  A
C1306      H1311   1.084       .  S
C1307      C1308   1.424       .  A
C1308      S1312   1.806       .  S
C1309      C1314   1.414       .  A
C1309      C1318   1.401       .  A
S1310      H1326   1.406       .  S
S1312      H1323   1.390       .  S
C1314      C1315   1.405       .  A
C1314      S1319   1.806       .  S
C1315      C1316   1.405       .  A
C1315      H1320   1.082       .  S
C1316      C1317   1.421       .  A
C1317      C1318   1.402       .  A
C1317      S1321   1.804       .  S
C1318      H1322   1.084       .  S
S1319      H1324   1.407       .  S
S1321      H1325   1.407       .  S
C1327      C1328   1.403       .  A
C1327      C1332   1.398       .  A
C1327      H1337   1.084       .  S
C1328      C1333   1.480       .  S
C1328      C1329   1.411       .  A
C1329      C1330   1.404       .  A
C1329      S1334   1.804       .  S
C1330      C1331   1.407       .  A
C1330      H1335   1.084       .  S
C1331      C1332   1.412       .  A
C1332      S1336   1.804       .  S
C1333      C1338   1.407       .  A
C1333      C1342   1.403       .  A
S1334      H1350   1.405       .  S
S1336      H1347   1.406       .  S
C1338      C1339   1.402       .  A
C1338      S1343   1.804       .  S
C1339      C1340   1.406       .  A
C1339      H1344   1.083       .  S
C1340      C1341   1.412       .  A
C1341      C1342   1.402       .  A
C1341      S1345   1.803       .  S
C1342      H1346   1.084       .  S
S1343      H1348   1.407       .  S
S1345      H1349   1.407       .  S
C1351      C1352   1.404       .  A
C1351      C1356   1.404       .  A
C1351      H1361   1.084       .  S
C1352      C1357   1.490       .  S
C1352      C1353   1.418       .  A
C1353      C1354   1.400       .  A
C1353      S1358   1.807       .  S
C1354      C1355   1.402       .  A
C1354      H1359   1.084       .  S
C1355      C1356   1.416       .  A
C1356      S1360   1.803       .  S
C1357      C1362   1.413       .  A
C1357      C1366   1.400       .  A
S1358      H1374   1.403       .  S
S1360      H1371   1.407       .  S
C1362      C1363   1.411       .  A
C1362      S1367   1.805       .  S
C1363      C1364   1.407       .  A
C1363      H1368   1.083       .  S
C1364      C1365   1.419       .  A
C1365      C1366   1.399       .  A
C1365      S1369   1.811       .  S
C1366      H1370   1.083       .  S
S1367      H1372   1.407       .  S
S1369      H1373   1.406       .  S
C1375      C1376   1.402       .  A
C1375      C1380   1.400       .  A
C1375      H1385   1.084       .  S
C1376      C1381   1.486       .  S
C1376      C1377   1.414       .  A
C1377      C1378   1.402       .  A
C1377      S1382   1.803       .  S
C1378      C1379   1.404       .  A
C1378      H1383   1.084       .  S
C1379      C1380   1.416       .  A
C1380      S1384   1.801       .  S
C1381      C1386   1.410       .  A
C1381      C1390   1.404       .  A
S1382      H1398   1.406       .  S
S1384      H1395   1.407       .  S
C1386      C1387   1.405       .  A
C1386      S1391   1.806       .  S
C1387      C1388   1.404       .  A
C1387      H1392   1.083       .  S
C1388      C1389   1.413       .  A
C1389      C1390   1.402       .  A
C1389      S1393   1.805       .  S
C1390      H1394   1.084       .  S
S1391      H1396   1.407       .  S
S1393      H1397   1.403       .  S
C1399      C1400   1.400       .  A
C1399      C1404   1.398       .  A
C1399      H1409   1.084       .  S
C1400      C1405   1.483       .  S
C1400      C1401   1.416       .  A
C1401      C1402   1.401       .  A
C1401      S1406   1.805       .  S
C1402      C1403   1.402       .  A
C1402      H1407   1.084       .  S
C1403      C1404   1.413       .  A
C1404      S1408   1.801       .  S
C1405      C1410   1.410       .  A
C1405      C1414   1.403       .  A
S1406      H1422   1.407       .  S
S1408      H1419   1.406       .  S
C1410      C1411   1.400       .  A
C1410      S1415   1.809       .  S
C1411      C1412   1.407       .  A
C1411      H1416   1.083       .  S
C1412      C1413   1.415       .  A
C1413      C1414   1.403       .  A
C1413      S1417   1.798       .  S
C1414      H1418   1.084       .  S
S1415      H1420   1.407       .  S
S1417      H1421   1.407       .  S
C1423      C1424   1.399       .  A
C1423      C1428   1.399       .  A
C1423      H1433   1.084       .  S
C1424      C1429   1.482       .  S
C1424      C1425   1.411   1_545  A
C1425      C1426   1.401       .  A
C1425      S1430   1.803       .  S
C1426      C1427   1.408   1_565  A
C1426      H1431   1.084       .  S
C1427      C1428   1.421       .  A
C1428      S1432   1.804       .  S
C1429      C1434   1.409   1_545  A
C1429      C1438   1.402       .  A
S1430      H1446   1.405       .  S
S1432      H1443   1.398   1_556  S
C1434      C1435   1.405       .  A
C1434      S1439   1.807       .  S
C1435      C1436   1.405   1_565  A
C1435      H1440   1.083       .  S
C1436      C1437   1.415       .  A
C1437      C1438   1.400       .  A
C1437      S1441   1.804       .  S
C1438      H1442   1.083       .  S
S1439      H1444   1.407       .  S
S1441      H1445   1.406       .  S
C1447      C1448   1.402   1_556  A
C1447      C1452   1.395       .  A
C1447      H1457   1.083       .  S
C1448      C1453   1.486       .  S
C1448      C1449   1.415       .  A
C1449      C1450   1.396       .  A
C1449      S1454   1.806       .  S
C1450      C1451   1.408       .  A
C1450      H1455   1.082       .  S
C1451      C1452   1.419   1_554  A
C1452      S1456   1.806       .  S
C1453      C1458   1.413       .  A
C1453      C1462   1.404       .  A
S1454      H1470   1.408       .  S
S1456      H1467   1.407       .  S
C1458      C1459   1.397       .  A
C1458      S1463   1.809       .  S
C1459      C1460   1.404       .  A
C1459      H1464   1.081   1_554  S
C1460      C1461   1.413       .  A
C1461      C1462   1.395       .  A
C1461      S1465   1.800   1_565  S
C1462      H1466   1.083       .  S
S1463      H1468   1.407       .  S
S1465      H1469   1.400       .  S
C1471      C1472   1.401       .  A
C1471      C1476   1.400       .  A
C1471      H1481   1.084       .  S
C1472      C1477   1.475       .  S
C1472      C1473   1.409   1_554  A
C1473      C1474   1.394       .  A
C1473      S1478   1.805       .  S
C1474      C1475   1.406   1_556  A
C1474      H1479   1.083       .  S
C1475      C1476   1.418       .  A
C1476      S1480   1.808       .  S
C1477      C1482   1.409   1_554  A
C1477      C1486   1.401       .  A
S1478      H1494   1.405       .  S
S1480      H1491   1.403       .  S
C1482      C1483   1.403       .  A
C1482      S1487   1.807       .  S
C1483      C1484   1.404   1_556  A
C1483      H1488   1.083       .  S
C1484      C1485   1.413       .  A
C1485      C1486   1.397       .  A
C1485      S1489   1.804       .  S
C1486      H1490   1.084       .  S
S1487      H1492   1.407       .  S
S1489      H1493   1.406       .  S
C1495      C1496   1.400       .  A
C1495      C1500   1.399       .  A
C1495      H1505   1.083       .  S
C1496      C1501   1.471       .  S
C1496      C1497   1.410       .  A
C1497      C1498   1.395       .  A
C1497      S1502   1.804       .  S
C1498      C1499   1.405       .  A
C1498      H1503   1.084       .  S
C1499      C1500   1.413       .  A
C1500      S1504   1.805   1_556  S
C1501      C1506   1.408       .  A
C1501      C1510   1.399       .  A
S1502      H1518   1.405       .  S
S1504      H1515   1.406   1_554  S
C1506      C1507   1.402       .  A
C1506      S1511   1.807       .  S
C1507      C1508   1.405       .  A
C1507      H1512   1.083       .  S
C1508      C1509   1.415       .  A
C1509      C1510   1.394       .  A
C1509      S1513   1.805       .  S
C1510      H1514   1.084       .  S
S1511      H1516   1.407       .  S
S1513      H1517   1.407       .  S
C1519      C1520   1.401       .  A
C1519      C1524   1.402       .  A
C1519      H1529   1.084       .  S
C1520      C1525   1.479       .  S
C1520      C1521   1.408       .  A
C1521      C1522   1.402       .  A
C1521      S1526   1.806       .  S
C1522      C1523   1.405       .  A
C1522      H1527   1.083       .  S
C1523      C1524   1.418       .  A
C1524      S1528   1.804       .  S
C1525      C1530   1.407       .  A
C1525      C1534   1.401       .  A
S1526      H1542   1.406       .  S
S1528      H1539   1.406       .  S
C1530      C1531   1.401       .  A
C1530      S1535   1.805       .  S
C1531      C1532   1.405       .  A
C1531      H1536   1.082       .  S
C1532      C1533   1.415       .  A
C1533      C1534   1.400       .  A
C1533      S1537   1.802       .  S
C1534      H1538   1.084       .  S
S1535      H1540   1.407       .  S
S1537      H1541   1.405   1_565  S
C1543      C1544   1.402       .  A
C1543      C1548   1.397       .  A
C1543      H1553   1.084       .  S
C1544      C1549   1.494       .  S
C1544      C1545   1.415   1_545  A
C1545      C1546   1.400       .  A
C1545      S1550   1.805       .  S
C1546      C1547   1.411   1_565  A
C1546      H1551   1.082       .  S
C1547      C1548   1.421       .  A
C1548      S1552   1.799       .  S
C1549      C1554   1.417       .  A
C1549      C1558   1.406       .  A
S1550      H1566   1.407       .  S
S1552      H1563   1.407       .  S
C1554      C1555   1.399       .  A
C1554      S1559   1.809       .  S
C1555      C1556   1.402       .  A
C1555      H1560   1.081       .  S
C1556      C1557   1.411       .  A
C1557      C1558   1.402       .  A
C1557      S1561   1.806   1_554  S
C1558      H1562   1.082       .  S
S1559      H1564   1.407       .  S
S1561      H1565   1.406   1_546  S
C1567      C1568   1.400       .  A
C1567      C1572   1.393       .  A
C1567      H1577   1.083       .  S
C1568      C1573   1.491       .  S
C1568      C1569   1.417       .  A
C1569      C1570   1.407       .  A
C1569      S1574   1.803       .  S
C1570      C1571   1.406       .  A
C1570      H1575   1.084       .  S
C1571      C1572   1.418       .  A
C1572      S1576   1.811       .  S
C1573      C1578   1.412       .  A
C1573      C1582   1.406       .  A
S1574      H1590   1.406       .  S
S1576      H1587   1.407       .  S
C1578      C1579   1.399       .  A
C1578      S1583   1.811       .  S
C1579      C1580   1.409       .  A
C1579      H1584   1.082       .  S
C1580      C1581   1.417       .  A
C1581      C1582   1.404       .  A
C1581      S1585   1.803       .  S
C1582      H1586   1.083       .  S
S1583      H1588   1.406       .  S
S1585      H1589   1.407       .  S
C1591      C1592   1.398       .  A
C1591      C1596   1.392       .  A
C1591      H1601   1.083       .  S
C1592      C1597   1.489       .  S
C1592      C1593   1.417       .  A
C1593      C1594   1.407       .  A
C1593      S1598   1.802       .  S
C1594      C1595   1.405       .  A
C1594      H1599   1.083       .  S
C1595      C1596   1.422       .  A
C1596      S1600   1.813       .  S
C1597      C1602   1.413       .  A
C1597      C1606   1.404       .  A
S1598      H1614   1.406       .  S
S1600      H1611   1.406       .  S
C1602      C1603   1.399       .  A
C1602      S1607   1.811       .  S
C1603      C1604   1.407       .  A
C1603      H1608   1.082       .  S
C1604      C1605   1.419       .  A
C1605      C1606   1.402       .  A
C1605      S1609   1.803       .  S
C1606      H1610   1.083       .  S
S1607      H1612   1.407       .  S
S1609      H1613   1.407       .  S
C1615      C1616   1.404       .  A
C1615      C1620   1.396       .  A
C1615      H1625   1.084       .  S
C1616      C1621   1.502       .  S
C1616      C1617   1.421       .  A
C1617      C1618   1.410       .  A
C1617      S1622   1.805       .  S
C1618      C1619   1.408       .  A
C1618      H1623   1.083       .  S
C1619      C1620   1.421       .  A
C1620      S1624   1.808       .  S
C1621      C1626   1.417       .  A
C1621      C1630   1.402       .  A
S1622      H1638   1.404       .  S
S1624      H1635   1.407       .  S
C1626      C1627   1.416       .  A
C1626      S1631   1.805       .  S
C1627      C1628   1.408       .  A
C1627      H1632   1.082       .  S
C1628      C1629   1.418       .  A
C1629      C1630   1.396       .  A
C1629      S1633   1.810       .  S
C1630      H1634   1.083       .  S
S1631      H1636   1.407       .  S
S1633      H1637   1.407       .  S
C1639      C1640   1.403       .  A
C1639      C1644   1.401       .  A
C1639      H1649   1.084       .  S
C1640      C1645   1.492       .  S
C1640      C1641   1.416       .  A
C1641      C1642   1.407       .  A
C1641      S1646   1.803       .  S
C1642      C1643   1.405       .  A
C1642      H1647   1.084       .  S
C1643      C1644   1.416       .  A
C1644      S1648   1.804       .  S
C1645      C1650   1.414       .  A
C1645      C1654   1.399       .  A
S1646      H1662   1.406       .  S
S1648      H1659   1.406       .  S
C1650      C1651   1.412       .  A
C1650      S1655   1.804       .  S
C1651      C1652   1.404       .  A
C1651      H1656   1.082       .  S
C1652      C1653   1.414       .  A
C1653      C1654   1.401       .  A
C1653      S1657   1.802       .  S
C1654      H1658   1.083       .  S
S1655      H1660   1.407       .  S
S1657      H1661   1.406       .  S
C1663      C1664   1.402       .  A
C1663      C1668   1.404       .  A
C1663      H1673   1.084       .  S
C1664      C1669   1.483       .  S
C1664      C1665   1.412       .  A
C1665      C1666   1.399       .  A
C1665      S1670   1.806       .  S
C1666      C1667   1.407       .  A
C1666      H1671   1.083       .  S
C1667      C1668   1.418       .  A
C1668      S1672   1.802       .  S
C1669      C1674   1.411       .  A
C1669      C1678   1.399       .  A
S1670      H1686   1.403       .  S
S1672      H1683   1.407       .  S
C1674      C1675   1.408       .  A
C1674      S1679   1.803       .  S
C1675      C1676   1.404       .  A
C1675      H1680   1.083       .  S
C1676      C1677   1.417       .  A
C1677      C1678   1.399       .  A
C1677      S1681   1.805       .  S
C1678      H1682   1.084       .  S
S1679      H1684   1.407       .  S
S1681      H1685   1.407       .  S
C1687      C1688   1.400       .  A
C1687      C1692   1.405       .  A
C1687      H1697   1.082       .  S
C1688      C1693   1.478       .  S
C1688      C1689   1.408       .  A
C1689      C1690   1.397       .  A
C1689      S1694   1.804       .  S
C1690      C1691   1.407       .  A
C1690      H1695   1.084       .  S
C1691      C1692   1.420       .  A
C1692      S1696   1.808       .  S
C1693      C1698   1.411       .  A
C1693      C1702   1.402       .  A
S1694      H1710   1.404       .  S
S1696      H1707   1.406       .  S
C1698      C1699   1.399       .  A
C1698      S1703   1.808       .  S
C1699      C1700   1.400       .  A
C1699      H1704   1.083       .  S
C1700      C1701   1.414       .  A
C1701      C1702   1.402       .  A
C1701      S1705   1.803       .  S
C1702      H1706   1.084       .  S
S1703      H1708   1.406       .  S
S1705      H1709   1.406       .  S
C1711      C1712   1.406       .  A
C1711      C1716   1.405       .  A
C1711      H1721   1.084       .  S
C1712      C1717   1.496       .  S
C1712      C1713   1.415       .  A
C1713      C1714   1.404       .  A
C1713      S1718   1.803       .  S
C1714      C1715   1.405       .  A
C1714      H1719   1.082       .  S
C1715      C1716   1.417       .  A
C1716      S1720   1.802       .  S
C1717      C1722   1.415       .  A
C1717      C1726   1.405       .  A
S1718      H1734   1.406       .  S
S1720      H1731   1.407       .  S
C1722      C1723   1.408       .  A
C1722      S1727   1.808       .  S
C1723      C1724   1.405       .  A
C1723      H1728   1.083       .  S
C1724      C1725   1.414       .  A
C1725      C1726   1.404       .  A
C1725      S1729   1.804       .  S
C1726      H1730   1.084       .  S
S1727      H1732   1.407       .  S
S1729      H1733   1.406       .  S
C1735      C1736   1.406       .  A
C1735      C1740   1.406       .  A
C1735      H1745   1.084       .  S
C1736      C1741   1.494       .  S
C1736      C1737   1.417       .  A
C1737      C1738   1.403       .  A
C1737      S1742   1.805       .  S
C1738      C1739   1.402       .  A
C1738      H1743   1.084       .  S
C1739      C1740   1.414       .  A
C1740      S1744   1.804       .  S
C1741      C1746   1.411       .  A
C1741      C1750   1.402       .  A
S1742      H1758   1.400       .  S
S1744      H1755   1.405       .  S
C1746      C1747   1.410       .  A
C1746      S1751   1.805       .  S
C1747      C1748   1.410       .  A
C1747      H1752   1.082       .  S
C1748      C1749   1.420       .  A
C1749      C1750   1.402       .  A
C1749      S1753   1.802       .  S
C1750      H1754   1.084       .  S
S1751      H1756   1.407       .  S
S1753      H1757   1.408       .  S
C1759      C1760   1.398       .  A
C1759      C1764   1.395       .  A
C1759      H1769   1.083       .  S
C1760      C1765   1.482       .  S
C1760      C1761   1.412       .  A
C1761      C1762   1.403       .  A
C1761      S1766   1.805       .  S
C1762      C1763   1.410       .  A
C1762      H1767   1.084       .  S
C1763      C1764   1.423       .  A
C1764      S1768   1.813       .  S
C1765      C1770   1.408       .  A
C1765      C1774   1.405       .  A
S1766      H1782   1.405       .  S
S1768      H1779   1.406       .  S
C1770      C1771   1.402       .  A
C1770      S1775   1.807       .  S
C1771      C1772   1.409       .  A
C1771      H1776   1.083       .  S
C1772      C1773   1.414       .  A
C1773      C1774   1.396       .  A
C1773      S1777   1.804       .  S
C1774      H1778   1.084       .  S
S1775      H1780   1.407       .  S
S1777      H1781   1.407       .  S
C1783      C1784   1.404       .  A
C1783      C1788   1.403       .  A
C1783      H1793   1.084       .  S
C1784      C1789   1.491       .  S
C1784      C1785   1.415       .  A
C1785      C1786   1.397       .  A
C1785      S1790   1.807       .  S
C1786      C1787   1.407       .  A
C1786      H1791   1.083       .  S
C1787      C1788   1.420       .  A
C1788      S1792   1.803       .  S
C1789      C1794   1.416       .  A
C1789      C1798   1.400       .  A
S1790      H1806   1.407       .  S
S1792      H1803   1.407   1_655  S
C1794      C1795   1.409       .  A
C1794      S1799   1.806       .  S
C1795      C1796   1.403       .  A
C1795      H1800   1.083       .  S
C1796      C1797   1.417       .  A
C1797      C1798   1.397       .  A
C1797      S1801   1.809       .  S
C1798      H1802   1.083       .  S
S1799      H1804   1.407       .  S
S1801      H1805   1.407       .  S
C1807      C1808   1.404       .  A
C1807      C1812   1.405       .  A
C1807      H1817   1.084       .  S
C1808      C1813   1.485       .  S
C1808      C1809   1.412       .  A
C1809      C1810   1.400       .  A
C1809      S1814   1.806       .  S
C1810      C1811   1.407       .  A
C1810      H1815   1.084       .  S
C1811      C1812   1.416       .  A
C1812      S1816   1.803       .  S
C1813      C1818   1.408       .  A
C1813      C1822   1.400       .  A
S1814      H1830   1.404       .  S
S1816      H1827   1.406       .  S
C1818      C1819   1.405       .  A
C1818      S1823   1.806       .  S
C1819      C1820   1.409       .  A
C1819      H1824   1.082       .  S
C1820      C1821   1.422       .  A
C1821      C1822   1.403       .  A
C1821      S1825   1.802       .  S
C1822      H1826   1.084       .  S
S1823      H1828   1.407       .  S
S1825      H1829   1.408       .  S
C1831      C1832   1.405       .  A
C1831      C1836   1.405       .  A
C1831      H1841   1.084       .  S
C1832      C1837   1.494       .  S
C1832      C1833   1.414       .  A
C1833      C1834   1.405       .  A
C1833      S1838   1.803       .  S
C1834      C1835   1.405       .  A
C1834      H1839   1.084       .  S
C1835      C1836   1.416       .  A
C1836      S1840   1.808       .  S
C1837      C1842   1.412       .  A
C1837      C1846   1.401       .  A
S1838      H1854   1.406       .  S
S1840      H1851   1.401       .  S
C1842      C1843   1.408       .  A
C1842      S1847   1.806       .  S
C1843      C1844   1.407       .  A
C1843      H1848   1.080       .  S
C1844      C1845   1.424       .  A
C1845      C1846   1.403       .  A
C1845      S1849   1.802       .  S
C1846      H1850   1.084       .  S
S1847      H1852   1.407       .  S
S1849      H1853   1.408       .  S
C1855      C1856   1.404       .  A
C1855      C1860   1.402       .  A
C1855      H1865   1.084       .  S
C1856      C1861   1.481       .  S
C1856      C1857   1.409       .  A
C1857      C1858   1.397       .  A
C1857      S1862   1.805       .  S
C1858      C1859   1.408       .  A
C1858      H1863   1.084       .  S
C1859      C1860   1.415       .  A
C1860      S1864   1.802       .  S
C1861      C1866   1.408       .  A
C1861      C1870   1.403       .  A
S1862      H1878   1.405       .  S
S1864      H1875   1.408       .  S
C1866      C1867   1.404       .  A
C1866      S1871   1.806       .  S
C1867      C1868   1.405       .  A
C1867      H1872   1.083       .  S
C1868      C1869   1.412       .  A
C1869      C1870   1.399       .  A
C1869      S1873   1.804       .  S
C1870      H1874   1.083       .  S
S1871      H1876   1.407       .  S
S1873      H1877   1.406       .  S
C1879      C1880   1.403       .  A
C1879      C1884   1.397       .  A
C1879      H1889   1.084       .  S
C1880      C1885   1.474       .  S
C1880      C1881   1.411       .  A
C1881      C1882   1.401       .  A
C1881      S1886   1.807       .  S
C1882      C1883   1.405       .  A
C1882      H1887   1.084       .  S
C1883      C1884   1.411       .  A
C1884      S1888   1.804       .  S
C1885      C1890   1.406       .  A
C1885      C1894   1.402       .  A
S1886      H1902   1.402       .  S
S1888      H1899   1.406       .  S
C1890      C1891   1.400       .  A
C1890      S1895   1.805       .  S
C1891      C1892   1.407       .  A
C1891      H1896   1.083       .  S
C1892      C1893   1.411       .  A
C1893      C1894   1.400       .  A
C1893      S1897   1.800       .  S
C1894      H1898   1.084       .  S
S1895      H1900   1.407       .  S
S1897      H1901   1.407       .  S
C1903      C1904   1.404       .  A
C1903      C1908   1.412       .  A
C1903      H1913   1.083       .  S
C1904      C1909   1.487       .  S
C1904      C1905   1.408       .  A
C1905      C1906   1.395       .  A
C1905      S1910   1.805       .  S
C1906      C1907   1.411       .  A
C1906      H1911   1.083       .  S
C1907      C1908   1.421       .  A
C1908      S1912   1.807       .  S
C1909      C1914   1.408       .  A
C1909      C1918   1.404       .  A
S1910      H1926   1.406       .  S
S1912      H1923   1.407       .  S
C1914      C1915   1.407       .  A
C1914      S1919   1.805       .  S
C1915      C1916   1.409       .  A
C1915      H1920   1.083       .  S
C1916      C1917   1.415       .  A
C1917      C1918   1.401       .  A
C1917      S1921   1.803       .  S
C1918      H1922   1.084       .  S
S1919      H1924   1.407       .  S
S1921      H1925   1.406       .  S
C1927      C1928   1.406       .  A
C1927      C1932   1.410       .  A
C1927      H1937   1.083       .  S
C1928      C1933   1.485       .  S
C1928      C1929   1.411       .  A
C1929      C1930   1.398       .  A
C1929      S1934   1.804       .  S
C1930      C1931   1.405       .  A
C1930      H1935   1.084       .  S
C1931      C1932   1.412       .  A
C1932      S1936   1.805       .  S
C1933      C1938   1.407       .  A
C1933      C1942   1.403       .  A
S1934      H1950   1.405       .  S
S1936      H1947   1.407       .  S
C1938      C1939   1.400       .  A
C1938      S1943   1.809       .  S
C1939      C1940   1.410       .  A
C1939      H1944   1.082       .  S
C1940      C1941   1.420       .  A
C1941      C1942   1.406       .  A
C1941      S1945   1.799       .  S
C1942      H1946   1.084       .  S
S1943      H1948   1.407       .  S
S1945      H1949   1.407       .  S
C1951      C1952   1.407       .  A
C1951      C1956   1.403       .  A
C1951      H1961   1.084       .  S
C1952      C1957   1.485       .  S
C1952      C1953   1.410       .  A
C1953      C1954   1.400       .  A
C1953      S1958   1.803       .  S
C1954      C1955   1.406       .  A
C1954      H1959   1.084       .  S
C1955      C1956   1.411       .  A
C1956      S1960   1.803       .  S
C1957      C1962   1.406       .  A
C1957      C1966   1.406       .  A
S1958      H1974   1.406       .  S
S1960      H1971   1.405       .  S
C1962      C1963   1.401       .  A
C1962      S1967   1.807       .  S
C1963      C1964   1.405       .  A
C1963      H1968   1.081       .  S
C1964      C1965   1.411       .  A
C1965      C1966   1.405       .  A
C1965      S1969   1.799       .  S
C1966      H1970   1.084       .  S
S1967      H1972   1.405       .  S
S1969      H1973   1.405       .  S
C1975      C1976   1.401       .  A
C1975      C1980   1.399       .  A
C1975      H1985   1.084       .  S
C1976      C1981   1.480       .  S
C1976      C1977   1.412       .  A
C1977      C1978   1.399       .  A
C1977      S1982   1.802       .  S
C1978      C1979   1.402       .  A
C1978      H1983   1.084       .  S
C1979      C1980   1.413       .  A
C1980      S1984   1.803       .  S
C1981      C1986   1.413       .  A
C1981      C1990   1.400       .  A
S1982      H1998   1.406       .  S
S1984      H1995   1.405       .  S
C1986      C1987   1.403       .  A
C1986      S1991   1.807       .  S
C1987      C1988   1.401       .  A
C1987      H1992   1.083       .  S
C1988      C1989   1.414       .  A
C1989      C1990   1.398       .  A
C1989      S1993   1.804       .  S
C1990      H1994   1.084       .  S
S1991      H1996   1.407       .  S
S1993      H1997   1.405       .  S
C1999      C2000   1.407       .  A
C1999      C2004   1.414       .  A
C1999      H2009   1.083       .  S
C2000      C2005   1.497       .  S
C2000      C2001   1.413       .  A
C2001      C2002   1.405       .  A
C2001      S2006   1.806       .  S
C2002      C2003   1.409       .  A
C2002      H2007   1.084       .  S
C2003      C2004   1.415       .  A
C2004      S2008   1.805       .  S
C2005      C2010   1.412       .  A
C2005      C2014   1.402       .  A
S2006      H2022   1.402       .  S
S2008      H2019   1.407       .  S
C2010      C2011   1.411       .  A
C2010      S2015   1.805       .  S
C2011      C2012   1.405       .  A
C2011      H2016   1.078       .  S
C2012      C2013   1.420       .  A
C2013      C2014   1.406       .  A
C2013      S2017   1.799       .  S
C2014      H2018   1.084       .  S
S2015      H2020   1.406       .  S
S2017      H2021   1.406       .  S
C2023      C2024   1.404       .  A
C2023      C2028   1.406       .  A
C2023      H2033   1.084       .  S
C2024      C2029   1.482       .  S
C2024      C2025   1.410       .  A
C2025      C2026   1.395       .  A
C2025      S2030   1.805       .  S
C2026      C2027   1.402       .  A
C2026      H2031   1.079       .  S
C2027      C2028   1.415       .  A
C2028      S2032   1.797       .  S
C2029      C2034   1.408       .  A
C2029      C2038   1.404       .  A
S2030      H2046   1.405       .  S
S2032      H2043   1.405       .  S
C2034      C2035   1.405       .  A
C2034      S2039   1.805       .  S
C2035      C2036   1.405       .  A
C2035      H2040   1.083       .  S
C2036      C2037   1.411       .  A
C2037      C2038   1.404       .  A
C2037      S2041   1.806       .  S
C2038      H2042   1.083       .  S
S2039      H2044   1.407       .  S
S2041      H2045   1.407       .  S
C2047      C2048   1.408       .  A
C2047      C2052   1.406       .  A
C2047      H2057   1.084       .  S
C2048      C2053   1.497       .  S
C2048      C2049   1.415       .  A
C2049      C2050   1.400       .  A
C2049      S2054   1.805       .  S
C2050      C2051   1.408       .  A
C2050      H2055   1.084       .  S
C2051      C2052   1.417       .  A
C2052      S2056   1.803       .  S
C2053      C2058   1.412       .  A
C2053      C2062   1.400       .  A
S2054      H2070   1.406       .  S
S2056      H2067   1.407       .  S
C2058      C2059   1.409       .  A
C2058      S2063   1.807       .  S
C2059      C2060   1.410       .  A
C2059      H2064   1.082       .  S
C2060      C2061   1.425       .  A
C2061      C2062   1.404       .  A
C2061      S2065   1.807       .  S
C2062      H2066   1.083       .  S
S2063      H2068   1.407       .  S
S2065      H2069   1.407       .  S
C2071      C2072   1.406       .  A
C2071      C2076   1.402       .  A
C2071      H2081   1.084       .  S
C2072      C2077   1.485       .  S
C2072      C2073   1.411       .  A
C2073      C2074   1.396       .  A
C2073      S2078   1.805       .  S
C2074      C2075   1.408       .  A
C2074      H2079   1.083       .  S
C2075      C2076   1.416       .  A
C2076      S2080   1.803       .  S
C2077      C2082   1.409       .  A
C2077      C2086   1.397       .  A
S2078      H2094   1.406       .  S
S2080      H2091   1.406       .  S
C2082      C2083   1.405       .  A
C2082      S2087   1.807       .  S
C2083      C2084   1.410       .  A
C2083      H2088   1.082       .  S
C2084      C2085   1.426       .  A
C2085      C2086   1.399       .  A
C2085      S2089   1.809       .  S
C2086      H2090   1.083       .  S
S2087      H2092   1.407       .  S
S2089      H2093   1.406       .  S
C2095      C2096   1.407       .  A
C2095      C2100   1.407       .  A
C2095      H2105   1.084       .  S
C2096      C2101   1.480       .  S
C2096      C2097   1.407       .  A
C2097      C2098   1.392       .  A
C2097      S2102   1.806       .  S
C2098      C2099   1.407       .  A
C2098      H2103   1.083       .  S
C2099      C2100   1.411       .  A
C2100      S2104   1.800       .  S
C2101      C2106   1.410       .  A
C2101      C2110   1.403       .  A
S2102      H2118   1.406       .  S
S2104      H2115   1.407       .  S
C2106      C2107   1.402       .  A
C2106      S2111   1.808       .  S
C2107      C2108   1.404       .  A
C2107      H2112   1.083       .  S
C2108      C2109   1.412       .  A
C2109      C2110   1.401       .  A
C2109      S2113   1.804       .  S
C2110      H2114   1.084       .  S
S2111      H2116   1.407       .  S
S2113      H2117   1.405       .  S
C2119      C2120   1.404       .  A
C2119      C2124   1.407       .  A
C2119      H2129   1.084       .  S
C2120      C2125   1.489       .  S
C2120      C2121   1.414       .  A
C2121      C2122   1.400       .  A
C2121      S2126   1.804       .  S
C2122      C2123   1.404       .  A
C2122      H2127   1.084       .  S
C2123      C2124   1.416       .  A
C2124      S2128   1.803       .  S
C2125      C2130   1.405       .  A
C2125      C2134   1.408       .  A
S2126      H2142   1.403       .  S
S2128      H2139   1.406       .  S
C2130      C2131   1.399       .  A
C2130      S2135   1.808       .  S
C2131      C2132   1.410       .  A
C2131      H2136   1.082       .  S
C2132      C2133   1.415       .  A
C2133      C2134   1.411       .  A
C2133      S2137   1.801       .  S
C2134      H2138   1.083       .  S
S2135      H2140   1.407       .  S
S2137      H2141   1.406       .  S
