geometry optimzed in LAMMPS
_audit_creation_date              2020-11-30 
_audit_creation_method            'lammps2cif' 
_symmetry_space_group_name_H-M    'P1' 
_symmetry_Int_Tables_number       1 
_symmetry_cell_setting            triclinic 
loop_ 
_symmetry_equiv_pos_as_xyz 
  x,y,z 
_cell_length_a                    68.38753684 
_cell_length_b                    68.59148545225362 
_cell_length_c                    34.288018362979436 
_cell_angle_alpha                 90.5999002452146 
_cell_angle_beta                  89.80960068604381 
_cell_angle_gamma                 120.07509338357146 
loop_ 
_atom_site_label 
_atom_site_type_symbol 
_atom_site_fract_x 
_atom_site_fract_y 
_atom_site_fract_z 
_atom_site_charge 
O1          O  0.78641000  0.27048120  0.18491903    -0.71300
O2          O  0.75627279  0.22359188  0.26863362    -0.72200
O3          O  0.75626238  0.22313205  0.18443602    -0.60900
O4          O  0.78664491  0.27084118  0.26777047    -0.69300
O5          O  0.75722251  0.27620771  0.26817076    -0.68800
O6          O  0.72654440  0.22802288  0.18539128    -0.60100
O7          O  0.72694560  0.22909914  0.26815883    -0.72600
O8          O  0.75659196  0.27522071  0.18438387    -0.71400
Cu9        Cu  0.77239542  0.24675087  0.22642235     1.04600
Cu10       Cu  0.74085191  0.25236993  0.22651484     1.04300
C11         C  0.77600065  0.28006780  0.17128243     0.94900
C12         C  0.73701458  0.21924836  0.28197596     0.94100
C13         C  0.73679179  0.21821392  0.17149607     0.86200
C14         C  0.77658895  0.28089806  0.28136113     0.92500
N15         N  0.48834111  0.83407519  0.44604525    -0.25600
N16         N  0.47815898  0.81593432  0.46798275    -0.33500
C17         C  0.47326627  0.79761569  0.44632141     0.02700
C18         C  0.48109150  0.80444542  0.40900085     0.08800
C19         C  0.49059343  0.82771826  0.40968780    -0.04300
H20         H  0.46578048  0.78068554  0.45754664     0.09400
H21         H  0.49870424  0.83914998  0.38575882     0.10600
Cu22       Cu  0.48507399  0.82042356  0.01719444     0.44200
Cu23       Cu  0.49876949  0.86627649  0.46873169     0.42000
Cu24       Cu  0.51148409  0.87456784  0.06556859     0.43900
N25         N  0.49323159  0.82485643  0.07581008    -0.33000
N26         N  0.50445352  0.84479497  0.09317603    -0.27300
C27         C  0.50955958  0.84194524  0.12984375    -0.03400
C28         C  0.50077433  0.81911314  0.13583451     0.08900
C29         C  0.49057369  0.80881561  0.10093980     0.02700
H30         H  0.51901639  0.85547158  0.15054000     0.10300
H31         H  0.48280095  0.79108603  0.09364724     0.09400
N32         N  0.51070110  0.89961694  0.03277003    -0.34400
N33         N  0.50582737  0.89501780  0.50155473    -0.26600
C34         C  0.50629563  0.91377792  0.48872201    -0.01900
C35         C  0.50995743  0.93035322  0.01584917     0.06700
C36         C  0.51432589  0.91974835  0.04586069     0.04800
H37         H  0.50324906  0.91641107  0.45881571     0.09900
H38         H  0.51915001  0.92593743  0.07544035     0.08800
N39         N  0.34948362  0.84141073  0.42651107    -0.25600
N40         N  0.33798822  0.82195100  0.44464869    -0.33500
C41         C  0.32371248  0.80621080  0.41925089     0.02700
C42         C  0.32617340  0.81625252  0.38340387     0.08800
C43         C  0.34253763  0.83859627  0.38910739    -0.04300
H44         H  0.31144644  0.78909395  0.42698737     0.09400
H45         H  0.34857525  0.85193475  0.36787763     0.10600
Cu46       Cu  0.33933473  0.81822630  0.50426966     0.44200
Cu47       Cu  0.37365480  0.87085515  0.45418560     0.42000
Cu48       Cu  0.37100130  0.86710802  0.05484056     0.43900
N49         N  0.33478087  0.81830809  0.06213822    -0.33000
N50         N  0.34578684  0.83792818  0.08060116    -0.27300
C51         C  0.33779889  0.83554480  0.11721352    -0.03400
C52         C  0.32126682  0.81330666  0.12227729     0.08900
C53         C  0.31976606  0.80282479  0.08674243     0.02700
H54         H  0.34344659  0.84907753  0.13847547     0.10300
H55         H  0.30785373  0.78555211  0.07871656     0.09400
N56         N  0.39634888  0.89357727  0.02348920    -0.34400
N57         N  0.39857682  0.89604780  0.48901203    -0.26600
C58         C  0.41715985  0.91488234  0.47703071    -0.01900
C59         C  0.43031365  0.92582940  0.50944304     0.06700
C60         C  0.41431126  0.91226615  0.03792527     0.04800
H61         H  0.42122602  0.91965390  0.44683899     0.09900
H62         H  0.41790130  0.91598633  0.06867898     0.08800
N63         N  0.48444204  0.14910012  0.38781343    -0.25600
N64         N  0.47877494  0.16208674  0.40787724    -0.33500
C65         C  0.47813192  0.17709272  0.38369462     0.02700
C66         C  0.48392688  0.17357182  0.34662730     0.08800
C67         C  0.48795910  0.15580691  0.35038759    -0.04300
H68         H  0.47535979  0.19063454  0.39300324     0.09400
H69         H  0.49381902  0.14880891  0.32785839     0.10600
Cu70       Cu  0.47657243  0.16169506  0.46825677     0.44200
Cu71       Cu  0.48868604  0.12397242  0.41343172     0.42000
Cu72       Cu  0.49631395  0.13002633  0.01843767     0.43900
N73         N  0.48311438  0.16586272  0.02770788    -0.33000
N74         N  0.49130775  0.15454756  0.04582364    -0.27300
C75         C  0.49586831  0.16183690  0.08312620    -0.03400
C76         C  0.49001707  0.17828601  0.08882527     0.08900
C77         C  0.48199021  0.18039131  0.05302648     0.02700
H78         H  0.50331950  0.15591760  0.10436173     0.10300
H79         H  0.47690890  0.19246369  0.04529630     0.09400
N80         N  0.49648313  0.10464423  0.98443219    -0.34400
N81         N  0.49272309  0.10070465  0.44617833    -0.26600
C82         C  0.49285107  0.08222532  0.43279743    -0.01900
C83         C  0.49540447  0.07318608  0.96475380     0.06700
C84         C  0.49823679  0.08697087  0.99667337     0.04800
H85         H  0.49049098  0.07684127  0.40255955     0.09900
H86         H  0.50047609  0.08393606  0.02678786     0.08800
N87         N  0.66926669  0.15133598  0.05536271    -0.25600
N88         N  0.68805124  0.16410139  0.03575222    -0.33500
C89         C  0.70383202  0.17909088  0.06039977     0.02700
C90         C  0.69446530  0.17577676  0.09729993     0.08800
C91         C  0.67251559  0.15814301  0.09296019    -0.04300
H92         H  0.72031217  0.19245128  0.05154833     0.09400
H93         H  0.65959554  0.15131067  0.11521685     0.10600
Cu94       Cu  0.68999162  0.16343621  0.97544080     0.44200
Cu95       Cu  0.63951842  0.12665898  0.02899748     0.42000
Cu96       Cu  0.63956829  0.13269154  0.42738622     0.43900
N97         N  0.68901222  0.16750705  0.41898973    -0.33000
N98         N  0.66929741  0.15686980  0.40080409    -0.27300
C99         C  0.67206504  0.16432912  0.36390098    -0.03400
C100        C  0.69462852  0.18010088  0.35843812     0.08900
C101        C  0.70488281  0.18173913  0.39402554     0.02700
H102        H  0.65858530  0.15887280  0.34271161     0.10300
H103        H  0.72231267  0.19325406  0.40182820     0.09400
N104        N  0.61327702  0.10728716  0.45933544    -0.34400
N105        N  0.61150655  0.10481344  0.99532296    -0.26600
C106        C  0.59192200  0.08722465  0.00773463    -0.01900
C107        C  0.58105789  0.07714384  0.47632439     0.06700
C108        C  0.59302501  0.09118929  0.44584817     0.04800
H109        H  0.58826426  0.08196408  0.03778873     0.09900
H110        H  0.58748866  0.08966002  0.41587623     0.08800
C111        C  0.50398684  0.97973377  0.49453147     0.04000
C112        C  0.48457860  0.98116189  0.48530962     0.03900
C113        C  0.48631235  0.00235532  0.48145461    -0.16600
C114        C  0.50692834  0.02244184  0.48770034     0.04000
C115        C  0.52640032  0.02107750  0.49702306     0.03900
C116        C  0.52463140  0.99980090  0.50081613    -0.16600
H117        H  0.53970190  0.99891480  0.50700374     0.06000
H118        H  0.47116546  0.00314354  0.47548165     0.06000
O119        O  0.24857777  0.47642687  0.22677637    -0.71300
O120        O  0.21943490  0.49503782  0.30999744    -0.72200
O121        O  0.22051996  0.49593692  0.22721944    -0.60900
O122        O  0.24784996  0.47578274  0.31085706    -0.69300
O123        O  0.27865308  0.50961813  0.31172562    -0.68800
O124        O  0.25128870  0.52980479  0.22846153    -0.60100
O125        O  0.25010320  0.52894002  0.31257365    -0.72600
O126        O  0.27935160  0.51028540  0.22869483    -0.71400
Cu127      Cu  0.23308745  0.48460010  0.26868231     1.04600
Cu128      Cu  0.26589207  0.52087513  0.27047750     1.04300
C129        C  0.26826410  0.49041835  0.21407959     0.94900
C130        C  0.23021643  0.51489530  0.32460277     0.94100
C131        C  0.23179740  0.51604650  0.21438267     0.86200
C132        C  0.26746163  0.48952805  0.32461799     0.92500
O133        O  0.27769617  0.75292083  0.21238305    -0.71300
O134        O  0.23287089  0.72339096  0.29875182    -0.72200
O135        O  0.23058790  0.72245479  0.21624707    -0.60900
O136        O  0.27995973  0.75398572  0.29615547    -0.69300
O137        O  0.27411856  0.78304179  0.29687396    -0.68800
O138        O  0.22480561  0.75155167  0.21721855    -0.60100
O139        O  0.22693766  0.75237141  0.30099964    -0.72600
O140        O  0.27193171  0.78201687  0.21415753    -0.71400
Cu141      Cu  0.25553942  0.73721723  0.25585554     1.04600
Cu142      Cu  0.24919193  0.76822913  0.25738672     1.04300
C143        C  0.28167863  0.77193577  0.19928164     0.94900
C144        C  0.22295246  0.73326055  0.31369590     0.94100
C145        C  0.22015487  0.73225711  0.20375432     0.86200
C146        C  0.28462904  0.77334050  0.30941160     0.92500
N147        N  0.16699347  0.52061819  0.09950197    -0.25000
N148        N  0.18594255  0.52701544  0.08005990    -0.33500
C149        C  0.20130796  0.52671608  0.10416847     0.02700
C150        C  0.19143413  0.51953782  0.14047643     0.08800
C151        C  0.16967417  0.51574395  0.13633775    -0.04300
H152        H  0.21782166  0.52989340  0.09517702     0.09400
H153        H  0.15648682  0.50914384  0.15814222     0.10600
Cu154      Cu  0.18594553  0.52928072  0.51853454     0.44200
Cu155      Cu  0.13784783  0.51706433  0.07369254     0.42000
Cu156      Cu  0.13226528  0.50898003  0.46606482     0.43900
N157        N  0.18189677  0.52278607  0.45885808    -0.33000
N158        N  0.16231766  0.51412857  0.44023640    -0.27300
C159        C  0.16519681  0.50900235  0.40337748    -0.03400
C160        C  0.18764924  0.51504025  0.39840873     0.08900
C161        C  0.19771213  0.52372510  0.43421888     0.02700
H162        H  0.15180684  0.50098136  0.38197596     0.10300
H163        H  0.21491568  0.52899170  0.44254328     0.09400
N164        N  0.10621643  0.50754118  0.50056891    -0.34400
N165        N  0.11036269  0.51377090  0.04215538    -0.26600
C166        C  0.09176892  0.51311898  0.05671629    -0.01900
C167        C  0.07558083  0.50753002  0.52248408     0.06700
C168        C  0.08669349  0.50629878  0.48935124     0.04800
H169        H  0.08886461  0.51447721  0.08740875     0.09900
H170        H  0.08147192  0.50549523  0.45934799     0.08800
N171        N  0.15536688  0.66544922  0.08538739    -0.25600
N172        N  0.16793059  0.68460618  0.06688791    -0.33500
C173        C  0.18231283  0.70015448  0.09246565     0.02700
C174        C  0.17882932  0.69021914  0.12868160     0.08800
C175        C  0.16174880  0.66819832  0.12307159    -0.04300
H176        H  0.19550777  0.71688635  0.08462675     0.09400
H177        H  0.15499066  0.65493065  0.14447991     0.10600
Cu178      Cu  0.16631247  0.68586416  0.50833724     0.44200
Cu179      Cu  0.13128778  0.63602261  0.05794706     0.42000
Cu180      Cu  0.13852458  0.63330911  0.45507147     0.43900
N181        N  0.17041809  0.68327101  0.44885001    -0.33000
N182        N  0.16120202  0.66376164  0.42994313    -0.27300
C183        C  0.16903356  0.66723531  0.39317807    -0.03400
C184        C  0.18368412  0.69003158  0.38853594     0.08900
C185        C  0.18420146  0.69974560  0.42443441     0.02700
H186        H  0.16471635  0.65405836  0.37161425     0.10300
H187        H  0.19475590  0.71723777  0.43285872     0.09400
N188        N  0.11272166  0.60677246  0.48504145    -0.34400
N189        N  0.10913408  0.60934674  0.02249166    -0.26600
C190        C  0.08966806  0.59094419  0.03271302    -0.01900
C191        C  0.08045348  0.57604788  0.49886843     0.06700
C192        C  0.09543533  0.58797552  0.46944804     0.04800
H193        H  0.08301161  0.58747850  0.06206157     0.09900
H194        H  0.09343166  0.58379560  0.43865741     0.08800
N195        N  0.84166632  0.34921217  0.05804744    -0.25600
N196        N  0.82259540  0.33674355  0.03870304    -0.33500
C197        C  0.80741057  0.32098494  0.06264781     0.02700
C198        C  0.81747689  0.32347704  0.09873163     0.08800
C199        C  0.83921194  0.34145842  0.09471045    -0.04300
H200        H  0.79082168  0.30775668  0.05364820     0.09400
H201        H  0.85246746  0.34802043  0.11649270     0.10600
Cu202      Cu  0.81985614  0.33648348  0.47820564     0.44200
Cu203      Cu  0.87050176  0.37513826  0.03247244     0.42000
Cu204      Cu  0.87311357  0.36971147  0.42797691     0.43900
N205        N  0.82388040  0.33448388  0.41842217    -0.33000
N206        N  0.84363624  0.34540484  0.40059130    -0.27300
C207        C  0.84114440  0.33796739  0.36342608    -0.03400
C208        C  0.81871120  0.32187830  0.35740139     0.08900
C209        C  0.80825203  0.32010591  0.39290774     0.02700
H210        H  0.85476383  0.34352616  0.34254346     0.10300
H211        H  0.79091496  0.30820585  0.40038646     0.09400
N212        N  0.89820152  0.39574455  0.46124293    -0.34400
N213        N  0.89676822  0.39922832  0.99897949    -0.26600
C214        C  0.91521808  0.41806915  0.01175983    -0.01900
C215        C  0.92814422  0.42785912  0.47970599     0.06700
C216        C  0.91728384  0.41369869  0.44835072     0.04800
H217        H  0.91877244  0.42311052  0.04209375     0.09900
H218        H  0.92260669  0.41649586  0.41818685     0.08800
N219        N  0.84985821  0.52455037  0.08430396    -0.25600
N220        N  0.83671599  0.53004073  0.06463420    -0.33500
C221        C  0.82094310  0.52957704  0.08882887     0.02700
C222        C  0.82408082  0.52321180  0.12539144     0.08800
C223        C  0.84247955  0.52009441  0.12138806    -0.04300
H224        H  0.80705471  0.53177135  0.07963006     0.09400
H225        H  0.84930038  0.51392678  0.14335686     0.10600
Cu226      Cu  0.83591162  0.53243082  0.50283572     0.44200
Cu227      Cu  0.87559997  0.52059651  0.05921412     0.42000
Cu228      Cu  0.86952586  0.51330074  0.45195769     0.43900
N229        N  0.83267120  0.52506656  0.44337639    -0.33000
N230        N  0.84418878  0.51691364  0.42528471    -0.27300
C231        C  0.83623393  0.51092857  0.38864123    -0.03400
C232        C  0.81910175  0.51579570  0.38316045     0.08900
C233        C  0.81729554  0.52476849  0.41852107     0.02700
H234        H  0.84213507  0.50309969  0.36776970     0.10300
H235        H  0.80484713  0.52944230  0.42636850     0.09400
N236        N  0.89488336  0.51207085  0.48350709    -0.34400
N237        N  0.89768221  0.51471475  0.02544674    -0.26600
C238        C  0.91538395  0.51258563  0.03691231    -0.01900
C239        C  0.92414195  0.50838607  0.50028035     0.06700
C240        C  0.91028726  0.50702009  0.46982064     0.04800
H241        H  0.92101217  0.51403442  0.06679728     0.09900
H242        H  0.91136610  0.50269647  0.43976195     0.08800
C243        C  0.01904753  0.50557434  0.50298892     0.04000
C244        C  0.02054782  0.52598634  0.51594443     0.03900
C245        C  0.00068180  0.52647013  0.52423572    -0.16600
C246        C  0.97928500  0.50737967  0.51867249     0.04000
C247        C  0.97769091  0.48690775  0.50599772     0.03900
C248        C  0.99764409  0.48641395  0.49763467    -0.16600
H249        H  0.99660862  0.47065936  0.48912683     0.06000
H250        H  0.00187838  0.54214090  0.53391451     0.06000
O251        O  0.52715729  0.27600646  0.18317645    -0.71300
O252        O  0.50625702  0.22673234  0.26264422    -0.72200
O253        O  0.50862819  0.22856215  0.18011025    -0.60900
O254        O  0.52469553  0.27413650  0.26704688    -0.69300
O255        O  0.49038368  0.26996910  0.26426416    -0.68800
O256        O  0.47436194  0.22449868  0.17714072    -0.60100
O257        O  0.47190519  0.22252857  0.26104980    -0.72600
O258        O  0.49288466  0.27199613  0.18158043    -0.71400
Cu259      Cu  0.51789400  0.25156936  0.22333865     1.04600
Cu260      Cu  0.48115668  0.24704052  0.22090636     1.04300
C261        C  0.51331081  0.28161563  0.16956568     0.94900
C262        C  0.48584035  0.21702091  0.27465202     0.94100
C263        C  0.48896105  0.21947280  0.16473221     0.86200
C264        C  0.51006533  0.27907963  0.27960205     0.92500
O265        O  0.72091253  0.47168794  0.29018359    -0.71300
O266        O  0.76959297  0.49621812  0.20853039    -0.72200
O267        O  0.76874127  0.49374924  0.29123561    -0.60900
O268        O  0.72153390  0.47435129  0.20631217    -0.69300
O269        O  0.72284342  0.50728206  0.21062991    -0.68800
O270        O  0.76983327  0.52658793  0.29539826    -0.60100
O271        O  0.77082612  0.52915503  0.21155800    -0.72600
O272        O  0.72194765  0.50453127  0.29341064    -0.71400
Cu273      Cu  0.74508565  0.48282865  0.24885998     1.04600
Cu274      Cu  0.74645317  0.51805380  0.25286738     1.04300
C275        C  0.71402640  0.48431212  0.30512863     0.94900
C276        C  0.77782797  0.51650202  0.19705241     0.94100
C277        C  0.77647276  0.51321140  0.30706936     0.86200
C278        C  0.71489857  0.48779681  0.19486754     0.92500
O279        O  0.51179674  0.78010161  0.22248839    -0.71300
O280        O  0.52033010  0.74586511  0.30905894    -0.72200
O281        O  0.51646906  0.74093296  0.22570990    -0.60900
O282        O  0.51546040  0.78463901  0.30466133    -0.69300
O283        O  0.47853289  0.76200105  0.31199351    -0.68800
O284        O  0.47906776  0.72042779  0.22920635    -0.60100
O285        O  0.48322910  0.72282726  0.31207177    -0.72600
O286        O  0.47458522  0.75895920  0.22887305    -0.71400
Cu287      Cu  0.51733590  0.76359818  0.26533832     1.04600
Cu288      Cu  0.47757343  0.74028962  0.27084414     1.04300
C289        C  0.49181536  0.77496448  0.21220154     0.94900
C290        C  0.50319459  0.72891004  0.32402541     0.94100
C291        C  0.49770804  0.72420531  0.21411147     0.86200
C292        C  0.49682465  0.78009514  0.32089249     0.92500
N293        N  0.33273312  0.48576232  0.44013809    -0.25600
N294        N  0.31397633  0.48052585  0.45947900    -0.33500
C295        C  0.29867813  0.48043028  0.43474156     0.02700
C296        C  0.30825454  0.48614317  0.39801287     0.08800
C297        C  0.32987843  0.48949187  0.40258080    -0.04300
H298        H  0.28244902  0.47812263  0.44352913     0.09400
H299        H  0.34290317  0.49514427  0.38053472     0.10600
Cu300      Cu  0.31126455  0.47833855  0.51979521     0.44200
Cu301      Cu  0.36212820  0.48974378  0.46687045     0.42000
Cu302      Cu  0.36064048  0.49206031  0.06491723     0.43900
N303        N  0.31248088  0.48124934  0.07519769    -0.33000
N304        N  0.33208811  0.48855613  0.09300508    -0.27300
C305        C  0.33025003  0.49371066  0.13032684    -0.03400
C306        C  0.30836453  0.48914136  0.13650716     0.08900
C307        C  0.29754129  0.48125280  0.10089035     0.02700
H308        H  0.34399225  0.50077092  0.15119553     0.10300
H309        H  0.28051468  0.47714996  0.09355431     0.09400
N310        N  0.38662312  0.49288592  0.03200126    -0.34400
N311        N  0.38935551  0.49479087  0.50214546    -0.26600
C312        C  0.40883516  0.49572393  0.49140524    -0.01900
C313        C  0.42213486  0.49987589  0.52444729     0.06700
C314        C  0.40651287  0.49620992  0.04547995     0.04800
H315        H  0.41304224  0.49372676  0.46174974     0.09900
H316        H  0.41164465  0.49926294  0.07578648     0.08800
N317        N  0.51039661  0.66538030  0.09765996    -0.25600
N318        N  0.50494825  0.67833133  0.07762903    -0.33500
C319        C  0.50511878  0.69407846  0.10145440     0.02700
C320        C  0.51130339  0.69120083  0.13833596     0.08800
C321        C  0.51471535  0.67295666  0.13491538    -0.04300
H322        H  0.50110752  0.70676030  0.09252306     0.09400
H323        H  0.51913519  0.66525418  0.15805080     0.10600
Cu324      Cu  0.50361178  0.67595272  0.51578454     0.44200
Cu325      Cu  0.50926737  0.63693258  0.07239659     0.42000
Cu326      Cu  0.49251453  0.62790254  0.45904236     0.43900
N327        N  0.50089243  0.67520505  0.45576315    -0.33000
N328        N  0.49550213  0.65703393  0.43446881    -0.27300
C329        C  0.49269092  0.66118924  0.39714200    -0.03400
C330        C  0.49695101  0.68316293  0.39496453     0.08900
C331        C  0.50211416  0.69150945  0.43271545     0.02700
H332        H  0.48776325  0.64909677  0.37342505     0.10300
H333        H  0.50541558  0.70784520  0.44304694     0.09400
N334        N  0.49309930  0.60220604  0.49039689    -0.34400
N335        N  0.50351290  0.60816005  0.04102142    -0.26600
C336        C  0.50701231  0.59168604  0.05405338    -0.01900
C337        C  0.49298140  0.57066951  0.50476226     0.06700
C338        C  0.49116549  0.58316399  0.47508619     0.04800
H339        H  0.51363195  0.59156977  0.08261909     0.09900
H340        H  0.48872430  0.57876395  0.44438833     0.08800
N341        N  0.51485485  0.34916564  0.05537509    -0.25600
N342        N  0.52083526  0.33627735  0.03571212    -0.33500
C343        C  0.52195590  0.32174568  0.06044586     0.02700
C344        C  0.51606951  0.32539885  0.09736478     0.08800
C345        C  0.51160944  0.34283600  0.09299606    -0.04300
H346        H  0.52477369  0.30817618  0.05152368     0.09400
H347        H  0.50530884  0.34962838  0.11513539     0.10600
Cu348      Cu  0.52307112  0.33737147  0.47494387     0.44200
Cu349      Cu  0.50874886  0.37302494  0.02947835     0.42000
Cu350      Cu  0.50214548  0.36924785  0.42230979     0.43900
N351        N  0.51699244  0.33445538  0.41523921    -0.33000
N352        N  0.50837814  0.34520504  0.39649443    -0.27300
C353        C  0.50339295  0.33712836  0.35971076    -0.03400
C354        C  0.50936629  0.32073822  0.35490485     0.08900
C355        C  0.51796244  0.31949339  0.39072410     0.02700
H356        H  0.49536022  0.34232919  0.33833923     0.10300
H357        H  0.52314545  0.30759493  0.39913671     0.09400
N358        N  0.49739067  0.39199230  0.45616000    -0.34400
N359        N  0.50184975  0.39409114  0.99589749    -0.26600
C360        C  0.50053077  0.41219858  0.00772752    -0.01900
C361        C  0.49279565  0.42024788  0.47670556     0.06700
C362        C  0.49389749  0.40867391  0.44417617     0.04800
H363        H  0.50309637  0.41839760  0.03748417     0.09900
H364        H  0.49287894  0.41250556  0.41397398     0.08800
N365        N  0.64551419  0.47678370  0.42495688    -0.25600
N366        N  0.65893189  0.47108100  0.44300395    -0.33500
C367        C  0.67403072  0.47144887  0.41724209     0.02700
C368        C  0.67002393  0.47796030  0.38137420     0.08800
C369        C  0.65190175  0.48126513  0.38745140    -0.04300
H370        H  0.68799897  0.46901161  0.42481342     0.09400
H371        H  0.64457912  0.48752514  0.36659603     0.10600
Cu372      Cu  0.65879580  0.46792993  0.50326202     0.44200
Cu373      Cu  0.62075663  0.48060734  0.45325534     0.42000
Cu374      Cu  0.62431100  0.49189061  0.04816069     0.43900
N375        N  0.65887061  0.47677812  0.05902493    -0.33000
N376        N  0.64850808  0.48656554  0.07591289    -0.27300
C377        C  0.65661031  0.49275363  0.11249457    -0.03400
C378        C  0.67254907  0.48631240  0.11909638     0.08900
C379        C  0.67350138  0.47621335  0.08452738     0.02700
H380        H  0.65165923  0.50178100  0.13254882     0.10300
H381        H  0.68499687  0.47018075  0.07750130     0.09400
N382        N  0.59995069  0.49293857  0.01270527    -0.34400
N383        N  0.59758988  0.48481554  0.48618550    -0.26600
C384        C  0.57956544  0.48554935  0.47266528    -0.01900
C385        C  0.56852928  0.48868763  0.50378513     0.06700
C386        C  0.58280462  0.49636244  0.02298424     0.04800
H387        H  0.57471330  0.48373671  0.44226322     0.09900
H388        H  0.57937137  0.49948628  0.05250988     0.08800
C389        C  0.49620445  0.51667714  0.52196512     0.04000
C390        C  0.47674227  0.49718286  0.50719596     0.03900
C391        C  0.47770818  0.47739775  0.50033323    -0.16600
C392        C  0.49725505  0.47637514  0.50907713     0.04000
C393        C  0.51670826  0.49585923  0.52325304     0.03900
C394        C  0.51576271  0.51557186  0.53039017    -0.16600
H395        H  0.53070659  0.53048589  0.54121659     0.06000
H396        H  0.46269921  0.46229418  0.49026611     0.06000
C397        C  0.54713771  0.48907283  0.50074691    -0.14800
C398        C  0.53856023  0.49628725  0.52914776    -0.29900
H399        H  0.53819619  0.48353969  0.47309014     0.14300
H400        H  0.54970663  0.51032324  0.03883367     0.14800
C401        C  0.49047780  0.44063956  0.47716798    -0.14800
C402        C  0.49660714  0.45439081  0.50853161    -0.29900
H403        H  0.48518740  0.44524396  0.45064949     0.14300
H404        H  0.50863549  0.45526727  0.02660790     0.14800
C405        C  0.49134348  0.54837178  0.50007620    -0.14800
C406        C  0.49716749  0.53868209  0.52819338    -0.29900
H407        H  0.48574761  0.53991478  0.47196213     0.14300
H408        H  0.48057486  0.53792303  0.98039754     0.14800
C409        C  0.44490835  0.50240927  0.52845127    -0.14800
C410        C  0.45468969  0.49618960  0.50062448    -0.29900
H411        H  0.45137690  0.50608084  0.04379073     0.14300
H412        H  0.44540547  0.48812405  0.47408288     0.14800
C413        C  0.50667993  0.71695200  0.35640591    -0.14800
C414        C  0.49419269  0.69450392  0.36067828    -0.29900
H415        H  0.52029531  0.72687794  0.37684748     0.14300
H416        H  0.48195070  0.68426111  0.33842628     0.14800
C417        C  0.49687242  0.70978603  0.18121355    -0.14800
C418        C  0.51289480  0.70441121  0.17376831    -0.29900
H419        H  0.48206366  0.70297344  0.16243973     0.14300
H420        H  0.52677827  0.70922465  0.19404509     0.14800
C421        C  0.68737620  0.49191422  0.15379282    -0.14800
C422        C  0.69848468  0.48088360  0.16227436    -0.29900
H423        H  0.68920858  0.50552171  0.17275698     0.14300
H424        H  0.69564167  0.46645637  0.14459845     0.14800
C425        C  0.69753983  0.47565385  0.33740017    -0.14800
C426        C  0.68449996  0.48456201  0.34632835    -0.29900
H427        H  0.69635263  0.46187359  0.35456212     0.14300
H428        H  0.68452371  0.49723259  0.32753487     0.14800
C429        C  0.50450411  0.30584689  0.32041767    -0.14800
C430        C  0.51591386  0.29498496  0.31283615    -0.29900
H431        H  0.49137678  0.30404696  0.30046252     0.14300
H432        H  0.53005154  0.29796248  0.33128683     0.14800
C433        C  0.51069769  0.31075011  0.13178499    -0.14800
C434        C  0.52083540  0.29862290  0.13842509    -0.29900
H435        H  0.49782435  0.30965031  0.15176684     0.14300
H436        H  0.53482290  0.30095249  0.12009161     0.14800
C437        C  0.80426294  0.50981171  0.34845377    -0.14800
C438        C  0.79258881  0.52023684  0.34008779    -0.29900
H439        H  0.80312662  0.49663012  0.32911594     0.14300
H440        H  0.79484714  0.53435829  0.35806825     0.14800
C441        C  0.80856471  0.51652733  0.15908966    -0.14800
C442        C  0.79504975  0.52519993  0.16588408    -0.29900
H443        H  0.80815950  0.50398390  0.17869321     0.14300
H444        H  0.79656936  0.53889891  0.14807296     0.14800
C445        C  0.94310548  0.50382442  0.49732597    -0.14800
C446        C  0.95909690  0.50990625  0.52497954    -0.29900
H447        H  0.94465182  0.49628552  0.47030943     0.14300
H448        H  0.95886109  0.51854115  0.05469165     0.14800
C449        C  0.94980884  0.44939279  0.47856586    -0.14800
C450        C  0.95557546  0.46552785  0.50597306    -0.29900
H451        H  0.96095289  0.45229669  0.45395454     0.14300
H452        H  0.94480422  0.46323747  0.03158973     0.14800
C453        C  0.05866794  0.55493852  0.49390134    -0.14800
C454        C  0.04245103  0.54720699  0.52128267    -0.29900
H455        H  0.05564431  0.54581001  0.46644491     0.14300
H456        H  0.04493784  0.55869865  0.04938251     0.14800
C457        C  0.05472794  0.50888594  0.52607945    -0.14800
C458        C  0.03939224  0.50322963  0.49741937    -0.29900
H459        H  0.05306489  0.51692634  0.05762037     0.14300
H460        H  0.04107674  0.49573377  0.47048857     0.14800
C461        C  0.20340239  0.72191083  0.17207302    -0.14800
C462        C  0.19296620  0.69976333  0.16387337    -0.29900
H463        H  0.19997231  0.73291706  0.15437924     0.14300
H464        H  0.19505490  0.68841893  0.18304446     0.14800
C465        C  0.19785811  0.70069338  0.35400925    -0.14800
C466        C  0.20722286  0.72278994  0.34660703    -0.29900
H467        H  0.20058575  0.68990911  0.33396641     0.14300
H468        H  0.20337461  0.73338702  0.36508824     0.14800
C469        C  0.27756480  0.48364455  0.18101083    -0.14800
C470        C  0.29965253  0.49461955  0.17202114    -0.29900
H471        H  0.26580360  0.46935140  0.16321563     0.14300
H472        H  0.31169621  0.50792297  0.19118448     0.14800
C473        C  0.29909283  0.49164362  0.36331927    -0.14800
C474        C  0.27674177  0.48227518  0.35674992    -0.29900
H475        H  0.31103487  0.50379284  0.34284818     0.14300
H476        H  0.26484528  0.46891760  0.37558740     0.14800
C477        C  0.22001578  0.52148611  0.35659871    -0.14800
C478        C  0.19766612  0.51008759  0.36400597    -0.29900
H479        H  0.23118273  0.53588613  0.37474289     0.14300
H480        H  0.18631333  0.49662444  0.34437369     0.14800
C481        C  0.20049360  0.51350797  0.17454452    -0.14800
C482        C  0.22274627  0.52337751  0.18208718    -0.29900
H483        H  0.18848040  0.50074156  0.19413615     0.14300
H484        H  0.23467160  0.53728707  0.16420107     0.14800
C485        C  0.55793576  0.05740093  0.47395998    -0.14800
C486        C  0.54911579  0.04147267  0.50158490    -0.29900
H487        H  0.54817033  0.05542019  0.44777256     0.14300
H488        H  0.55653054  0.04319031  0.02656353     0.14800
C489        C  0.49434617  0.19247690  0.12415049    -0.14800
C490        C  0.48315772  0.20360457  0.13146670    -0.29900
H491        H  0.50707224  0.19379832  0.14458980     0.14300
H492        H  0.46937718  0.20107918  0.11247972     0.14800
C493        C  0.47850897  0.20001095  0.30574632    -0.14800
C494        C  0.48901152  0.18821037  0.31229649    -0.29900
H495        H  0.46446610  0.19745750  0.32414453     0.14300
H496        H  0.50192891  0.18951708  0.29220903     0.14800
C497        C  0.49647887  0.05002383  0.46224887    -0.14800
C498        C  0.50739509  0.04448666  0.48864205    -0.29900
H499        H  0.48793426  0.03868420  0.43786122     0.14300
H500        H  0.51402304  0.05695055  0.01426496     0.14800
C501        C  0.30156098  0.78399582  0.34079143    -0.14800
C502        C  0.31192794  0.80623476  0.34841905    -0.29900
H503        H  0.30514993  0.77318231  0.35870339     0.14300
H504        H  0.30959711  0.81732016  0.32898049     0.14800
C505        C  0.29713207  0.78179122  0.16582360    -0.14800
C506        C  0.30688347  0.80375034  0.15708142    -0.29900
H507        H  0.30066747  0.77071151  0.14805497     0.14300
H508        H  0.30465703  0.81516423  0.17635169     0.14800
C509        C  0.45301874  0.94608745  0.51114512    -0.14800
C510        C  0.46187831  0.96077498  0.48170192    -0.29900
H511        H  0.45857244  0.94930281  0.03799503     0.14300
H512        H  0.45178653  0.95883777  0.45601681     0.14800
C513        C  0.48837639  0.78692442  0.17984082    -0.14800
C514        C  0.50364691  0.80823974  0.17058072    -0.29900
H515        H  0.47274772  0.77795453  0.16328398     0.14300
H516        H  0.51843112  0.81791654  0.18890199     0.14800
C517        C  0.49669081  0.79601285  0.35018240    -0.14800
C518        C  0.48030499  0.78945274  0.37704180    -0.29900
H519        H  0.51107417  0.81303495  0.35130741     0.14300
H520        H  0.46692414  0.77192998  0.37784115     0.14800
C521        C  0.51145307  0.95265260  0.01790945    -0.14800
C522        C  0.50009279  0.95843918  0.99304292    -0.29900
H523        H  0.52120760  0.96407529  0.04149717     0.14300
H524        H  0.49261567  0.94536101  0.47138569     0.14800
C525        C  0.78583750  0.29633306  0.13918573    -0.14800
C526        C  0.80817695  0.30840400  0.13262650    -0.29900
H527        H  0.77431001  0.29867683  0.12072065     0.14300
H528        H  0.81989559  0.30742853  0.15273529     0.14800
C529        C  0.78685001  0.29739367  0.31370901    -0.14800
C530        C  0.80899811  0.30745247  0.32233573    -0.29900
H531        H  0.77582218  0.30109294  0.33125003     0.14300
H532        H  0.82033818  0.30498493  0.30332742     0.14800
C533        C  0.70467898  0.19406507  0.32347990    -0.14800
C534        C  0.72674258  0.20337421  0.31465253    -0.29900
H535        H  0.69354442  0.19668731  0.30445654     0.14300
H536        H  0.73758644  0.19955260  0.33216459     0.14800
C537        C  0.70427172  0.19030154  0.13223385    -0.14800
C538        C  0.72664674  0.20175799  0.13906681    -0.29900
H539        H  0.69281795  0.19160766  0.15272511     0.14300
H540        H  0.73791061  0.19913172  0.12012689     0.14800
O541        O  0.78641264  0.27114386  0.68767315    -0.71300
O542        O  0.75601818  0.22407957  0.77078764    -0.72200
O543        O  0.75705543  0.22380244  0.68712989    -0.60900
O544        O  0.78574180  0.27149673  0.77050820    -0.69300
O545        O  0.75587003  0.27613621  0.76996980    -0.68800
O546        O  0.72697143  0.22811681  0.68657175    -0.60100
O547        O  0.72618190  0.22875848  0.76888731    -0.72600
O548        O  0.75634064  0.27544334  0.68603486    -0.71400
Cu549      Cu  0.77232975  0.24742953  0.72910080     1.04600
Cu550      Cu  0.74035652  0.25235929  0.72783923     1.04300
C551        C  0.77587892  0.28043700  0.67336005     0.94900
C552        C  0.73634245  0.21905321  0.78291981     0.94100
C553        C  0.73762242  0.21852453  0.67358513     0.86200
C554        C  0.77525159  0.28120736  0.78364552     0.92500
N555        N  0.49320419  0.83930640  0.93622359    -0.25600
N556        N  0.48715791  0.82105702  0.95706467    -0.33500
C557        C  0.48603733  0.80465830  0.93378220     0.02700
C558        C  0.49188478  0.81298145  0.89640595     0.08800
C559        C  0.49647307  0.83505989  0.89899583    -0.04300
H560        H  0.48255579  0.78832598  0.94383764     0.09400
H561        H  0.50216913  0.84723755  0.87575189     0.10600
Cu562      Cu  0.47570574  0.81709088  0.52780404     0.44200
Cu563      Cu  0.49811909  0.86927021  0.96131261     0.42000
Cu564      Cu  0.50795768  0.87127452  0.57461052     0.43900
N565        N  0.48513638  0.82104663  0.58568141    -0.33000
N566        N  0.49848821  0.84074864  0.60262263    -0.27300
C567        C  0.50410179  0.83704639  0.63839891    -0.03400
C568        C  0.49345231  0.81394679  0.64416368     0.08900
C569        C  0.48163738  0.80441475  0.61005643     0.02700
H570        H  0.51531115  0.85014524  0.65850599     0.10300
H571        H  0.47227314  0.78668479  0.60248749     0.09400
N572        N  0.50996357  0.89713508  0.53954514    -0.34400
N573        N  0.50462568  0.89719509  0.99561735    -0.26600
C574        C  0.50385331  0.91555744  0.98438955    -0.01900
C575        C  0.51115526  0.92854844  0.51997035     0.06700
C576        C  0.51352797  0.91745621  0.55157054     0.04800
H577        H  0.49937695  0.91799612  0.95534300     0.09900
H578        H  0.51683408  0.92343312  0.58147501     0.08800
N579        N  0.35166252  0.83652371  0.92367489    -0.25600
N580        N  0.33943493  0.81736352  0.94242725    -0.33500
C581        C  0.32554966  0.80141417  0.91685619     0.02700
C582        C  0.32903014  0.81104953  0.88037256     0.08800
C583        C  0.34559129  0.83329756  0.88582960    -0.04300
H584        H  0.31258284  0.78461149  0.92485976     0.09400
H585        H  0.35204283  0.84644546  0.86420494     0.10600
Cu586      Cu  0.33841228  0.81455794  0.00278921     0.44200
Cu587      Cu  0.37486972  0.86683705  0.95033796     0.42000
Cu588      Cu  0.37529698  0.86814972  0.56013307     0.43900
N589        N  0.33802037  0.81985897  0.56447973    -0.33000
N590        N  0.35041004  0.83850610  0.58497863    -0.27300
C591        C  0.34343859  0.83488608  0.62232248    -0.03400
C592        C  0.32604674  0.81283346  0.62547170     0.08900
C593        C  0.32305999  0.80379690  0.58823084     0.02700
H594        H  0.35009694  0.84754940  0.64523725     0.10300
H595        H  0.31003612  0.78727285  0.57855900     0.09400
N596        N  0.39936827  0.89474468  0.52739894    -0.34400
N597        N  0.39755013  0.89387848  0.98498424    -0.26600
C598        C  0.41618748  0.91298897  0.97390040    -0.01900
C599        C  0.42732284  0.92515650  0.00714233     0.06700
C600        C  0.41853879  0.91256342  0.54074911     0.04800
H601        H  0.42176307  0.91715504  0.94402762     0.09900
H602        H  0.42378598  0.91538442  0.57100471     0.08800
N603        N  0.48431436  0.15035820  0.88788396    -0.25600
N604        N  0.47877533  0.16348540  0.90779616    -0.33500
C605        C  0.47797005  0.17826409  0.88332104     0.02700
C606        C  0.48351512  0.17437698  0.84631923     0.08800
C607        C  0.48757201  0.15669047  0.85032073    -0.04300
H608        H  0.47524276  0.19187775  0.89233865     0.09400
H609        H  0.49326155  0.14948101  0.82788261     0.10600
Cu610      Cu  0.47692448  0.16360700  0.96817317     0.44200
Cu611      Cu  0.48882712  0.12562377  0.91343143     0.42000
Cu612      Cu  0.49446348  0.12691315  0.51916678     0.43900
N613        N  0.48238083  0.16366291  0.52791678    -0.33000
N614        N  0.49001600  0.15196484  0.54641504    -0.27300
C615        C  0.49455076  0.15935841  0.58372701    -0.03400
C616        C  0.48921155  0.17623442  0.58898646     0.08900
C617        C  0.48156206  0.17848054  0.55293012     0.02700
H618        H  0.50160950  0.15320121  0.60527842     0.10300
H619        H  0.47694409  0.19084591  0.54482619     0.09400
N620        N  0.49562299  0.10211881  0.48447850    -0.34400
N621        N  0.49293212  0.10271164  0.94632191    -0.26600
C622        C  0.49199664  0.08366366  0.93345197    -0.01900
C623        C  0.49639143  0.07163843  0.46388317     0.06700
C624        C  0.49805482  0.08472591  0.49625176     0.04800
H625        H  0.48883080  0.07775160  0.90350117     0.09900
H626        H  0.50010287  0.08142801  0.52631038     0.08800
N627        N  0.67167689  0.15039794  0.55797915    -0.25600
N628        N  0.69036657  0.16378853  0.53859303    -0.33500
C629        C  0.70579041  0.17884120  0.56356090     0.02700
C630        C  0.69627971  0.17493208  0.60036716     0.08800
C631        C  0.67462458  0.15686458  0.59573401    -0.04300
H632        H  0.72203175  0.19271212  0.55495945     0.09400
H633        H  0.66164013  0.14957379  0.61782882     0.10600
Cu634      Cu  0.69272876  0.16442797  0.47824647     0.44200
Cu635      Cu  0.64225797  0.12555169  0.53143390     0.42000
Cu636      Cu  0.63707600  0.13034409  0.92341502     0.43900
N637        N  0.68655210  0.16511465  0.91573125    -0.33000
N638        N  0.66712055  0.15392482  0.89679346    -0.27300
C639        C  0.67028952  0.16102366  0.85958947    -0.03400
C640        C  0.69280854  0.17721079  0.85489743     0.08900
C641        C  0.70258531  0.17936490  0.89110868     0.02700
H642        H  0.65705448  0.15529855  0.83785667     0.10300
H643        H  0.71973709  0.19141166  0.89964744     0.09400
N644        N  0.61036194  0.10669688  0.95713134    -0.34400
N645        N  0.61454854  0.10418700  0.49705201    -0.26600
C646        C  0.59523957  0.08589871  0.50842094    -0.01900
C647        C  0.57770816  0.07768431  0.97585975     0.06700
C648        C  0.58991764  0.09056073  0.94440939     0.04800
H649        H  0.59171977  0.07970182  0.53797148     0.09900
H650        H  0.58447008  0.08810019  0.91427247     0.08800
C651        C  0.50083334  0.98052388  0.99490790     0.04000
C652        C  0.48125737  0.98180531  0.98650506     0.03900
C653        C  0.48288793  0.00299498  0.98369822    -0.16600
C654        C  0.50357179  0.02303898  0.98997679     0.04000
C655        C  0.52316989  0.02178821  0.99829830     0.03900
C656        C  0.52150241  0.00057601  0.00123897    -0.16600
H657        H  0.53668945  0.99976004  0.00656176     0.06000
H658        H  0.46773023  0.00383313  0.97813994     0.06000
O659        O  0.24696406  0.47906506  0.72607618    -0.71300
O660        O  0.21882576  0.49870868  0.80975003    -0.72200
O661        O  0.21962920  0.49934572  0.72729526    -0.60900
O662        O  0.24591256  0.47811358  0.80981851    -0.69300
O663        O  0.27731167  0.51151123  0.81094663    -0.68800
O664        O  0.25064061  0.53303838  0.72836873    -0.60100
O665        O  0.25009743  0.53218171  0.81226401    -0.72600
O666        O  0.27801372  0.51271607  0.72835004    -0.71400
Cu667      Cu  0.23179102  0.48763129  0.76818443     1.04600
Cu668      Cu  0.26507832  0.52357583  0.77007036     1.04300
C669        C  0.26683406  0.49287399  0.71379228     0.94900
C670        C  0.23015994  0.51853569  0.82437716     0.94100
C671        C  0.23100564  0.51943560  0.71456015     0.86200
C672        C  0.26563629  0.49136451  0.82348243     0.92500
O673        O  0.27867142  0.75005860  0.70842058    -0.71300
O674        O  0.23406237  0.72092052  0.79522883    -0.72200
O675        O  0.23115561  0.72083960  0.71302263    -0.60900
O676        O  0.28134239  0.74995450  0.79198764    -0.69300
O677        O  0.27668849  0.77973580  0.79473862    -0.68800
O678        O  0.22687018  0.75084899  0.71526707    -0.60100
O679        O  0.22937270  0.75066439  0.79874317    -0.72600
O680        O  0.27442852  0.78005969  0.71253158    -0.71400
Cu681      Cu  0.25651167  0.73442746  0.75198339     1.04600
Cu682      Cu  0.25163026  0.76633723  0.75539000     1.04300
C683        C  0.28361380  0.76965369  0.69685469     0.94900
C684        C  0.22487251  0.73131438  0.81093416     0.94100
C685        C  0.22118493  0.73131003  0.70159116     0.86200
C686        C  0.28665968  0.76928311  0.80624408     0.92500
N687        N  0.16466684  0.51903619  0.59792805    -0.25000
N688        N  0.18386984  0.52627386  0.57886308    -0.33500
C689        C  0.19973279  0.52769493  0.60377183     0.02700
C690        C  0.18991259  0.52079520  0.64017143     0.08800
C691        C  0.16766973  0.51532484  0.63528859    -0.04300
H692        H  0.21659904  0.53173484  0.59532423     0.09400
H693        H  0.15440630  0.50831195  0.65693989     0.10600
Cu694      Cu  0.18812869  0.53144088  0.02004375     0.44200
Cu695      Cu  0.13497677  0.51305058  0.57125039     0.42000
Cu696      Cu  0.13483237  0.51471472  0.96841226     0.43900
N697        N  0.18387174  0.52696428  0.96002247    -0.33000
N698        N  0.16443196  0.51978274  0.94156705    -0.27300
C699        C  0.16694494  0.51549181  0.90402762    -0.03400
C700        C  0.18901485  0.52046336  0.89851870     0.08900
C701        C  0.19926055  0.52771688  0.93462384     0.02700
H702        H  0.15348193  0.50852868  0.88262379     0.10300
H703        H  0.21617040  0.53169432  0.94256990     0.09400
N704        N  0.10881456  0.51233555  0.00366960    -0.34400
N705        N  0.10771478  0.50937296  0.53903113    -0.26600
C706        C  0.08947156  0.50954354  0.55321057    -0.01900
C707        C  0.07764309  0.51089477  0.02615928     0.06700
C708        C  0.08899174  0.51048493  0.99280678     0.04800
H709        H  0.08676032  0.51152850  0.58375803     0.09900
H710        H  0.08366211  0.50973188  0.96288577     0.08800
N711        N  0.15397554  0.66360945  0.58714760    -0.25600
N712        N  0.16579520  0.68287206  0.56854954    -0.33500
C713        C  0.17986015  0.69878116  0.59393026     0.02700
C714        C  0.17698233  0.68904033  0.63019043     0.08800
C715        C  0.16050432  0.66671969  0.62479164    -0.04300
H716        H  0.19261014  0.71564417  0.58579752     0.09400
H717        H  0.15450221  0.65346787  0.64618926     0.10600
Cu718      Cu  0.16858575  0.68752757  0.00663038     0.44200
Cu719      Cu  0.13106380  0.63361601  0.55951791     0.42000
Cu720      Cu  0.13850703  0.63432031  0.95433142     0.43900
N721        N  0.17255580  0.68379061  0.94746024    -0.33000
N722        N  0.16257730  0.66408001  0.92913238    -0.27300
C723        C  0.17051914  0.66681389  0.89250377    -0.03400
C724        C  0.18598855  0.68933809  0.88731891     0.08900
C725        C  0.18692845  0.69966753  0.92274450     0.02700
H726        H  0.16554911  0.65333245  0.87132038     0.10300
H727        H  0.19802675  0.71715881  0.93061698     0.09400
N728        N  0.11221307  0.60847551  0.98458162    -0.34400
N729        N  0.10952266  0.60709956  0.52304295    -0.26600
C730        C  0.08996688  0.58858508  0.53257060    -0.01900
C731        C  0.08009532  0.57787594  0.99954106     0.06700
C732        C  0.09492059  0.58942698  0.96969191     0.04800
H733        H  0.08306701  0.58481591  0.56174225     0.09900
H734        H  0.09295708  0.58466109  0.93915741     0.08800
N735        N  0.84152821  0.34773728  0.55790114    -0.25600
N736        N  0.82259027  0.33500160  0.53835638    -0.33500
C737        C  0.80733808  0.31941083  0.56250666     0.02700
C738        C  0.81727271  0.32231199  0.59885393     0.08800
C739        C  0.83896613  0.34030664  0.59478463    -0.04300
H740        H  0.79079970  0.30604800  0.55358119     0.09400
H741        H  0.85210775  0.34717116  0.61677130     0.10600
Cu742      Cu  0.81945209  0.33860019  0.97889824     0.44200
Cu743      Cu  0.87037606  0.37380152  0.53278209     0.42000
Cu744      Cu  0.87187042  0.37278713  0.92692878     0.43900
N745        N  0.82279499  0.33658071  0.91905913    -0.33000
N746        N  0.84224279  0.34796394  0.90044305    -0.27300
C747        C  0.83946498  0.34030403  0.86339098    -0.03400
C748        C  0.81717055  0.32357779  0.85832036     0.08900
C749        C  0.80708764  0.32166326  0.89423658     0.02700
H750        H  0.85283969  0.34606927  0.84198482     0.10300
H751        H  0.79003827  0.30930183  0.90248420     0.09400
N752        N  0.89768620  0.39802371  0.96054056    -0.34400
N753        N  0.89673586  0.39774928  0.49939293    -0.26600
C754        C  0.91466243  0.41720081  0.51167836    -0.01900
C755        C  0.92850471  0.42920874  0.97986276     0.06700
C756        C  0.91693984  0.41593676  0.94794345     0.04800
H757        H  0.91773931  0.42297633  0.54170416     0.09900
H758        H  0.92193693  0.41929819  0.91767530     0.08800
N759        N  0.85094904  0.52557736  0.58195775    -0.25600
N760        N  0.83670945  0.52993424  0.56317206    -0.33500
C761        C  0.82080880  0.52834222  0.58827245     0.02700
C762        C  0.82506108  0.52240380  0.62441008     0.08800
C763        C  0.84421162  0.52071994  0.61927577    -0.04300
H764        H  0.80616500  0.52948485  0.57999991     0.09400
H765        H  0.85202619  0.51524386  0.64059954     0.10600
Cu766      Cu  0.83703108  0.53274658  0.00433443     0.44200
Cu767      Cu  0.87705546  0.52311293  0.55549410     0.42000
Cu768      Cu  0.87109147  0.51394274  0.95484992     0.43900
N769        N  0.83476683  0.52598677  0.94483425    -0.33000
N770        N  0.84663671  0.51812168  0.92714699    -0.27300
C771        C  0.83928546  0.51240509  0.89020331    -0.03400
C772        C  0.82211883  0.51709845  0.88417701     0.08900
C773        C  0.81967071  0.52571276  0.91942946     0.02700
H774        H  0.84547073  0.50468099  0.86965508     0.10300
H775        H  0.80690483  0.53002057  0.92686938     0.09400
N776        N  0.89533458  0.51168129  0.98723186    -0.34400
N777        N  0.89822824  0.51640010  0.52133306    -0.26600
C778        C  0.91602618  0.51442071  0.53262890    -0.01900
C779        C  0.92436481  0.50781641  0.00420480     0.06700
C780        C  0.91116791  0.50732461  0.97343746     0.04800
H781        H  0.92221787  0.51671877  0.56227881     0.09900
H782        H  0.91304460  0.50418519  0.94304428     0.08800
C783        C  0.02006248  0.50666079  0.00634943     0.04000
C784        C  0.02113460  0.52692224  0.01902929     0.03900
C785        C  0.00108735  0.52698790  0.02743176    -0.16600
C786        C  0.97989291  0.50766111  0.02193123     0.04000
C787        C  0.97865965  0.48742917  0.00877077     0.03900
C788        C  0.99881182  0.48728916  0.00056345    -0.16600
H789        H  0.99801611  0.47167582  0.99181332     0.06000
H790        H  0.00196921  0.54252010  0.03709624     0.06000
O791        O  0.52453130  0.27490135  0.68077251    -0.71300
O792        O  0.50479917  0.22658318  0.76145826    -0.72200
O793        O  0.50727293  0.22754555  0.67897625    -0.60900
O794        O  0.52200305  0.27367753  0.76456626    -0.69300
O795        O  0.48727469  0.26843899  0.76161186    -0.68800
O796        O  0.47263041  0.22249631  0.67556636    -0.60100
O797        O  0.47004128  0.22136604  0.75933925    -0.72600
O798        O  0.48985196  0.26986898  0.67885258    -0.71400
Cu799      Cu  0.51588129  0.25093084  0.72151391     1.04600
Cu800      Cu  0.47871443  0.24530603  0.71866032     1.04300
C801        C  0.51030613  0.27994302  0.66697989     0.94900
C802        C  0.48437596  0.21657714  0.77344309     0.94100
C803        C  0.48756560  0.21779957  0.66367092     0.86200
C804        C  0.50693894  0.27800782  0.77710695     0.92500
O805        O  0.72359048  0.46988916  0.79329944    -0.71300
O806        O  0.77223301  0.49449394  0.71113272    -0.72200
O807        O  0.77151721  0.49314564  0.79385663    -0.60900
O808        O  0.72421244  0.47125264  0.70936509    -0.69300
O809        O  0.72445043  0.50371232  0.71244323    -0.68800
O810        O  0.77173406  0.52561078  0.79640445    -0.60100
O811        O  0.77224400  0.52686571  0.71282704    -0.72600
O812        O  0.72392326  0.50241525  0.79486660    -0.71400
Cu813      Cu  0.74783724  0.48101852  0.75182893     1.04600
Cu814      Cu  0.74815491  0.51578793  0.75422109     1.04300
C815        C  0.71624454  0.48237199  0.80723206     0.94900
C816        C  0.77969348  0.51451512  0.69876483     0.94100
C817        C  0.77889049  0.51278515  0.80868251     0.86200
C818        C  0.71700566  0.48412332  0.69741439     0.92500
O819        O  0.50325793  0.77242300  0.72751092    -0.71300
O820        O  0.51042909  0.73495990  0.80940150    -0.72200
O821        O  0.50948562  0.73414628  0.72565093    -0.60900
O822        O  0.50385667  0.77273778  0.81011759    -0.69300
O823        O  0.46706317  0.74822181  0.81303120    -0.68800
O824        O  0.47215629  0.71212387  0.72498031    -0.60100
O825        O  0.47359255  0.71045175  0.80814885    -0.72600
O826        O  0.46606133  0.74984009  0.72975640    -0.71400
Cu827      Cu  0.50808364  0.75430020  0.76812612     1.04600
Cu828      Cu  0.46843218  0.72934218  0.76904483     1.04300
C829        C  0.48343766  0.76714108  0.71602446     0.94900
C830        C  0.49331789  0.71703207  0.82192551     0.94100
C831        C  0.49155330  0.71754020  0.71122303     0.86200
C832        C  0.48442756  0.76623245  0.82512748     0.92500
N833        N  0.32930594  0.48254931  0.93498847    -0.25600
N834        N  0.31087239  0.47783216  0.95495777    -0.33500
C835        C  0.29585183  0.47876745  0.93092548     0.02700
C836        C  0.30533677  0.48465186  0.89414638     0.08800
C837        C  0.32654520  0.48694683  0.89783275    -0.04300
H838        H  0.27998473  0.47712698  0.94033199     0.09400
H839        H  0.33944453  0.49245962  0.87557569     0.10600
Cu840      Cu  0.30835636  0.47524222  0.01537093     0.44200
Cu841      Cu  0.35849088  0.48541906  0.95993663     0.42000
Cu842      Cu  0.36324814  0.49683877  0.57222949     0.43900
N843        N  0.31440769  0.48438653  0.57951676    -0.33000
N844        N  0.33375774  0.49224500  0.59848183    -0.27300
C845        C  0.33092657  0.49706763  0.63551460    -0.03400
C846        C  0.30868483  0.49172629  0.64017983     0.08900
C847        C  0.29869386  0.48373657  0.60405342     0.02700
H848        H  0.34422611  0.50446260  0.65718779     0.10300
H849        H  0.28167733  0.47910941  0.59554754     0.09400
N850        N  0.38978035  0.49801939  0.54033241    -0.34400
N851        N  0.38581819  0.48985195  0.99374534    -0.26600
C852        C  0.40519965  0.49094085  0.98198298    -0.01900
C853        C  0.41882747  0.49499968  0.01447894     0.06700
C854        C  0.40949887  0.50130722  0.55471730     0.04800
H855        H  0.40924086  0.48941248  0.95198386     0.09900
H856        H  0.41418881  0.50422221  0.58522594     0.08800
N857        N  0.50156125  0.65623218  0.59511925    -0.25600
N858        N  0.50271378  0.67335828  0.57579804    -0.33500
C859        C  0.50282422  0.68843344  0.60117690     0.02700
C860        C  0.50185491  0.68066309  0.63857888     0.08800
C861        C  0.50124583  0.66024261  0.63372167    -0.04300
H862        H  0.50362288  0.70398440  0.59284123     0.09400
H863        H  0.50006681  0.64890068  0.65648552     0.10600
Cu864      Cu  0.49784716  0.67428954  0.01868086     0.44200
Cu865      Cu  0.49926645  0.62801707  0.56646560     0.42000
Cu866      Cu  0.48878508  0.62391016  0.96973345     0.43900
N867        N  0.49163289  0.66874833  0.95959236    -0.33000
N868        N  0.48718164  0.64993336  0.94117865    -0.27300
C869        C  0.48320293  0.65180428  0.90320642    -0.03400
C870        C  0.48583052  0.67300930  0.89767797     0.08900
C871        C  0.49112796  0.68318854  0.93407627     0.02700
H872        H  0.47928219  0.63896723  0.88114157     0.10300
H873        H  0.49407439  0.69980313  0.94165298     0.09400
N874        N  0.49551078  0.60312247  0.00491356    -0.34400
N875        N  0.49592395  0.60229826  0.52863916    -0.26600
C876        C  0.49597601  0.58331012  0.53840223    -0.01900
C877        C  0.50078988  0.57539477  0.02514999     0.06700
C878        C  0.49356770  0.58322318  0.99438439     0.04800
H879        H  0.49777861  0.57895556  0.56787873     0.09900
H880        H  0.48786379  0.57536745  0.96601262     0.08800
N881        N  0.51069322  0.34729701  0.55406580    -0.25600
N882        N  0.51895877  0.33615683  0.53506544    -0.33500
C883        C  0.52021831  0.32162410  0.55956194     0.02700
C884        C  0.51209016  0.32351619  0.59561446     0.08800
C885        C  0.50614706  0.33989019  0.59101233    -0.04300
H886        H  0.52486739  0.30928611  0.55084990     0.09400
H887        H  0.49812187  0.34527156  0.61241474     0.10600
Cu888      Cu  0.52171894  0.33498385  0.97510643     0.44200
Cu889      Cu  0.50388420  0.37037312  0.52760097     0.42000
Cu890      Cu  0.49874419  0.36563081  0.92586473     0.43900
N891        N  0.51302603  0.33065566  0.91624256    -0.33000
N892        N  0.50344655  0.34092012  0.89894706    -0.27300
C893        C  0.49754014  0.33271210  0.86237983    -0.03400
C894        C  0.50402471  0.31680883  0.85607709     0.08900
C895        C  0.51377178  0.31590032  0.89089535     0.02700
H896        H  0.48900478  0.33784962  0.84192958     0.10300
H897        H  0.51997594  0.30461831  0.89791450     0.09400
N898        N  0.49765241  0.39100245  0.95803021    -0.34400
N899        N  0.49831948  0.39240713  0.49469385    -0.26600
C900        C  0.49562582  0.40938008  0.50820672    -0.01900
C901        C  0.49509586  0.42085165  0.97576375     0.06700
C902        C  0.49336227  0.40692300  0.94486235     0.04800
H903        H  0.49589194  0.41352499  0.53878968     0.09900
H904        H  0.48952042  0.40841984  0.91483447     0.08800
N905        N  0.64487955  0.47583289  0.91939363    -0.25600
N906        N  0.65750845  0.46998365  0.93963905    -0.33500
C907        C  0.67312891  0.46980195  0.91581689     0.02700
C908        C  0.67027461  0.47609873  0.87892479     0.08800
C909        C  0.65227609  0.47982988  0.88236806    -0.04300
H910        H  0.68680115  0.46737360  0.92544766     0.09400
H911        H  0.64590385  0.48631478  0.86016353     0.10600
Cu912      Cu  0.65626153  0.46826831  0.00013767     0.44200
Cu913      Cu  0.62048364  0.48144109  0.94437277     0.42000
Cu914      Cu  0.62298670  0.48516419  0.55770389     0.43900
N915        N  0.66033340  0.47338929  0.56323990    -0.33000
N916        N  0.64830967  0.48063414  0.58242716    -0.27300
C917        C  0.65577658  0.48536947  0.61950677    -0.03400
C918        C  0.67305834  0.48064803  0.62403388     0.08900
C919        C  0.67549523  0.47306374  0.58778070     0.02700
H920        H  0.64955086  0.49242551  0.64129739     0.10300
H921        H  0.68831551  0.46905477  0.57913923     0.09400
N922        N  0.59842102  0.48708187  0.52458201    -0.34400
N923        N  0.59849509  0.48848126  0.97485681    -0.26600
C924        C  0.58044435  0.48874215  0.96018061    -0.01900
C925        C  0.57000577  0.49379910  0.98991869     0.06700
C926        C  0.58091986  0.48956619  0.53645861     0.04800
H927        H  0.57499012  0.48498995  0.93008283     0.09900
H928        H  0.57715641  0.49120756  0.56658135     0.08800
C929        C  0.49346042  0.51640942  0.00360401     0.04000
C930        C  0.47445747  0.49512562  0.99432715     0.03900
C931        C  0.47693979  0.47599258  0.99177200    -0.16600
C932        C  0.49781276  0.47742226  0.99943490     0.04000
C933        C  0.51686910  0.49866080  0.00832079     0.03900
C934        C  0.51444020  0.51782478  0.01081769    -0.16600
H935        H  0.52923824  0.53408065  0.01669257     0.06000
H936        H  0.46224100  0.45967879  0.98570302     0.06000
C937        C  0.54827758  0.49342495  0.98612184    -0.14800
C938        C  0.53973260  0.50132033  0.01338479    -0.29900
H939        H  0.53871483  0.48608650  0.95945124     0.14300
H940        H  0.54814287  0.50372536  0.55571401     0.14800
C941        C  0.49174479  0.44060728  0.97398258    -0.14800
C942        C  0.49930096  0.45652940  0.00214275    -0.29900
H943        H  0.48398678  0.44272995  0.94799074     0.14300
H944        H  0.50364806  0.45064464  0.53377866     0.14800
C945        C  0.50268149  0.55476971  0.02707821    -0.14800
C946        C  0.49183602  0.53732789  0.00200486    -0.29900
H947        H  0.51268919  0.55365237  0.05055953     0.14300
H948        H  0.50453065  0.54781999  0.55520603     0.14800
C949        C  0.44199178  0.49853109  0.01705309    -0.14800
C950        C  0.45144636  0.49202458  0.98913382    -0.29900
H951        H  0.45348982  0.50864652  0.55626060     0.14300
H952        H  0.44158552  0.48265678  0.96381573     0.14800
C953        C  0.49661008  0.70503565  0.85445380    -0.14800
C954        C  0.48317372  0.68293201  0.86133945    -0.29900
H955        H  0.51069385  0.71504542  0.87403405     0.14300
H956        H  0.47018791  0.67220651  0.84048962     0.14800
C957        C  0.49276756  0.70579089  0.67598188    -0.14800
C958        C  0.50116062  0.69177906  0.67547338    -0.29900
H959        H  0.48528043  0.70798577  0.64971816     0.14300
H960        H  0.50687398  0.68797563  0.70235281     0.14800
C961        C  0.68786949  0.48618517  0.65852072    -0.14800
C962        C  0.70048547  0.47655099  0.66510444    -0.29900
H963        H  0.68847355  0.49868698  0.67897248     0.14300
H964        H  0.69884806  0.46300853  0.64617861     0.14800
C965        C  0.69922406  0.47379484  0.83868516    -0.14800
C966        C  0.68582311  0.48257540  0.84539381    -0.29900
H967        H  0.69775565  0.46018085  0.85667896     0.14300
H968        H  0.68625542  0.49506527  0.82561516     0.14800
C969        C  0.49944918  0.30257608  0.82073413    -0.14800
C970        C  0.51227871  0.29353916  0.81080683    -0.29900
H971        H  0.48543073  0.29981383  0.80215231     0.14300
H972        H  0.52713711  0.29753290  0.82809073     0.14800
C973        C  0.50664623  0.30841666  0.62931691    -0.14800
C974        C  0.51749981  0.29700004  0.63608520    -0.29900
H975        H  0.49321886  0.30647710  0.64876282     0.14300
H976        H  0.53196183  0.30012627  0.61834726     0.14800
C977        C  0.80750603  0.51085199  0.84936142    -0.14800
C978        C  0.79519909  0.52059138  0.84123501    -0.29900
H979        H  0.80684440  0.49787549  0.83003160     0.14300
H980        H  0.79695465  0.53454302  0.85914575     0.14800
C981        C  0.81013349  0.51512841  0.65887086    -0.14800
C982        C  0.79636861  0.52332412  0.66685621    -0.29900
H983        H  0.81047240  0.50276965  0.67800156     0.14300
H984        H  0.79726603  0.53685674  0.64933212     0.14800
C985        C  0.94360376  0.50374575  0.00091484    -0.14800
C986        C  0.95947111  0.50969121  0.02867896    -0.29900
H987        H  0.94551723  0.49680197  0.97347606     0.14300
H988        H  0.95880505  0.51924231  0.55053869     0.14800
C989        C  0.95048311  0.45050856  0.97942476    -0.14800
C990        C  0.95664844  0.46594367  0.00823150    -0.29900
H991        H  0.96141056  0.45392987  0.95429967     0.14300
H992        H  0.94353915  0.46328280  0.52871037     0.14800
C993        C  0.05861806  0.55636017  0.99556966    -0.14800
C994        C  0.04277363  0.54848524  0.02359116    -0.29900
H995        H  0.05551478  0.54698432  0.96836969     0.14300
H996        H  0.04460145  0.55728530  0.54725873     0.14800
C997        C  0.05624760  0.51123130  0.02987448    -0.14800
C998        C  0.04074901  0.50485085  0.00124244    -0.29900
H999        H  0.05175336  0.51464244  0.55394436     0.14300
H1000       H  0.04271075  0.49739036  0.97449827     0.14800
C1001       C  0.20361065  0.72123898  0.67112315    -0.14800
C1002       C  0.19168833  0.69888316  0.66470952    -0.29900
H1003       H  0.20083297  0.73250453  0.65292696     0.14300
H1004       H  0.19331065  0.68752295  0.68455886     0.14800
C1005       C  0.20003023  0.69930212  0.85246383    -0.14800
C1006       C  0.20945695  0.72128189  0.84425223    -0.29900
H1007       H  0.20243971  0.68814437  0.83282862     0.14300
H1008       H  0.20588220  0.73217859  0.86245588     0.14800
C1009       C  0.27658116  0.48603895  0.68158572    -0.14800
C1010       C  0.29893910  0.49675809  0.67472190    -0.29900
H1011       H  0.26512247  0.47206461  0.66291581     0.14300
H1012       H  0.31050183  0.50970534  0.69493059     0.14800
C1013       C  0.29663393  0.49126384  0.86032700    -0.14800
C1014       C  0.27443679  0.48333844  0.85498877    -0.29900
H1015       H  0.30873697  0.50294265  0.83949053     0.14300
H1016       H  0.26225887  0.47035688  0.87408461     0.14800
C1017       C  0.22063455  0.52558597  0.85659175    -0.14800
C1018       C  0.19830748  0.51535558  0.86344606    -0.29900
H1019       H  0.23231242  0.53933097  0.87544380     0.14300
H1020       H  0.18651638  0.50267007  0.84312290     0.14800
C1021       C  0.19943686  0.51593857  0.67485079    -0.14800
C1022       C  0.22171223  0.52668365  0.68260553    -0.29900
H1023       H  0.18770118  0.50291713  0.69438741     0.14300
H1024       H  0.23336398  0.54074031  0.66471047     0.14800
C1025       C  0.55447137  0.05805448  0.97439661    -0.14800
C1026       C  0.54591435  0.04226980  0.00231513    -0.29900
H1027       H  0.54448558  0.05587191  0.94841806     0.14300
H1028       H  0.55947179  0.04225606  0.52615979     0.14800
C1029       C  0.49350486  0.19065117  0.62409516    -0.14800
C1030       C  0.48205096  0.20158430  0.63096916    -0.29900
H1031       H  0.50634655  0.19231874  0.64459861     0.14300
H1032       H  0.46814323  0.19860551  0.61190701     0.14800
C1033       C  0.47747140  0.20003937  0.80503017    -0.14800
C1034       C  0.48824998  0.18856828  0.81166470    -0.29900
H1035       H  0.46351493  0.19753072  0.82362793     0.14300
H1036       H  0.50104840  0.18977407  0.79138501     0.14800
C1037       C  0.49444348  0.05114645  0.96374664    -0.14800
C1038       C  0.50421527  0.04504522  0.99126163    -0.29900
H1039       H  0.48626587  0.04003267  0.93892992     0.14300
H1040       H  0.51752191  0.05670081  0.51104009     0.14800
C1041       C  0.30369755  0.77911477  0.83761044    -0.14800
C1042       C  0.31488148  0.80134804  0.84524730    -0.29900
H1043       H  0.30656029  0.76781017  0.85554475     0.14300
H1044       H  0.31319054  0.81278486  0.82568721     0.14800
C1045       C  0.29962718  0.78001630  0.66439313    -0.14800
C1046       C  0.31165399  0.80245771  0.65989808    -0.29900
H1047       H  0.30163817  0.76897043  0.64387852     0.14300
H1048       H  0.31091428  0.81354215  0.68199759     0.14800
C1049       C  0.44955493  0.94603767  0.01048189    -0.14800
C1050       C  0.45869174  0.96120836  0.98173864    -0.29900
H1051       H  0.46262820  0.94932568  0.53799072     0.14300
H1052       H  0.44908810  0.95919636  0.95535420     0.14800
C1053       C  0.48036608  0.78049950  0.68564615    -0.14800
C1054       C  0.49611324  0.80190123  0.67749275    -0.29900
H1055       H  0.46458541  0.77238624  0.66940267     0.14300
H1056       H  0.51123321  0.81068048  0.69537308     0.14800
C1057       C  0.48173714  0.77889917  0.85768065    -0.14800
C1058       C  0.49467960  0.80133180  0.86215359    -0.29900
H1059       H  0.46808705  0.76944607  0.87810578     0.14300
H1060       H  0.50706609  0.81125216  0.84012013     0.14800
C1061       C  0.51310024  0.95117016  0.52058222    -0.14800
C1062       C  0.50305747  0.95745569  0.49368813    -0.29900
H1063       H  0.52198975  0.96243892  0.54486569     0.14300
H1064       H  0.48896112  0.94616155  0.97155995     0.14800
C1065       C  0.78571334  0.29642722  0.64083340    -0.14800
C1066       C  0.80796313  0.30766263  0.63323773    -0.29900
H1067       H  0.77428466  0.29908026  0.62264883     0.14300
H1068       H  0.81966637  0.30638350  0.65295455     0.14800
C1069       C  0.78516553  0.29784023  0.81585795    -0.14800
C1070       C  0.80743488  0.30872876  0.82376458    -0.29900
H1071       H  0.77388821  0.30106140  0.83364623     0.14300
H1072       H  0.81891588  0.30671450  0.80437694     0.14800
C1073       C  0.70320245  0.19154516  0.82046779    -0.14800
C1074       C  0.72565544  0.20246425  0.81437595    -0.29900
H1075       H  0.69215642  0.19341089  0.80002118     0.14300
H1076       H  0.73653395  0.19939742  0.83326276     0.14800
C1077       C  0.70560435  0.18945526  0.63529992    -0.14800
C1078       C  0.72796106  0.20184926  0.64157377    -0.29900
H1079       H  0.69388752  0.19014928  0.65598205     0.14300
H1080       H  0.73956045  0.19982946  0.62250141     0.14800
loop_ 
_geom_bond_atom_site_label_1 
_geom_bond_atom_site_label_2 
_geom_bond_distance 
_geom_bond_site_symmetry_2 
_ccdc_geom_bond_type 
O1           Cu9   2.017       .  S
O1           C11   1.279       .  A
O2           Cu9   2.029       .  S
O2           C12   1.280       .  A
O3           Cu9   2.021       .  S
O3           C13   1.278       .  A
O4           Cu9   2.009       .  S
O4           C14   1.278       .  A
O5          Cu10   2.023       .  S
O5           C14   1.279       .  A
O6          Cu10   2.014       .  S
O6           C13   1.278       .  A
O7          Cu10   2.002       .  S
O7           C12   1.277       .  A
O8          Cu10   2.012       .  S
O8           C11   1.277       .  A
Cu9         Cu10   2.374       .  S
C11         C525   1.475       .  S
C12         C534   1.479       .  S
C13         C538   1.478       .  S
C14         C529   1.478       .  S
N15          N16   1.322       .  A
N15          C19   1.350       .  A
N15         Cu23   2.093       .  S
N16          C17   1.343       .  A
N16        Cu562   2.061       .  S
C17          C18   1.378       .  A
C17          H20   1.082       .  S
C18         C518   1.477       .  S
C18          C19   1.389       .  A
C19          H21   1.082       .  S
Cu22         N25   2.066       .  S
Cu22        N556   2.066   1_554  S
Cu23         N33   2.095       .  S
Cu24         N26   2.086       .  S
Cu24         N32   2.086       .  S
N25          N26   1.322       .  A
N25          C29   1.343       .  A
N26          C27   1.348       .  A
C27          C28   1.385       .  A
C27          H30   1.082       .  S
C28         C514   1.477       .  S
C28          C29   1.382       .  A
C29          H31   1.082       .  S
N32         N573   1.324   1_554  A
N32          C36   1.347       .  A
N33         N572   1.325       .  A
N33          C34   1.349       .  A
C34         C575   1.388       .  A
C34          H37   1.082       .  S
C35         C521   1.482       .  S
C35          C36   1.383       .  A
C35         C574   1.387   1_554  A
C36          H38   1.082       .  S
N39          N40   1.322       .  A
N39          C43   1.347       .  A
N39         Cu47   2.082       .  S
N40          C41   1.344       .  A
N40         Cu46   2.071       .  S
C41          C42   1.383       .  A
C41          H44   1.082       .  S
C42         C502   1.476       .  S
C42          C43   1.384       .  A
C43          H45   1.082       .  S
Cu46        N589   2.070       .  S
Cu47         N57   2.082       .  S
Cu48         N50   2.080       .  S
Cu48         N56   2.081       .  S
N49          N50   1.322       .  A
N49          C53   1.347       .  A
N49        Cu586   2.078       .  S
N50          C51   1.346       .  A
C51          C52   1.382       .  A
C51          H54   1.082       .  S
C52         C506   1.478       .  S
C52          C53   1.386       .  A
C53          H55   1.082       .  S
N56         N597   1.322   1_554  A
N56          C60   1.345       .  A
N57         N596   1.323       .  A
N57          C58   1.347       .  A
C58          C59   1.386       .  A
C58          H61   1.082       .  S
C59         C509   1.477       .  S
C59         C600   1.382       .  A
C60         C599   1.383       .  A
C60          H62   1.082       .  S
N63          N64   1.322       .  A
N63          C67   1.347       .  A
N63         Cu71   2.088       .  S
N64          C65   1.346       .  A
N64         Cu70   2.075       .  S
C65          C66   1.385       .  A
C65          H68   1.082       .  S
C66         C494   1.479       .  S
C66          C67   1.385       .  A
C67          H69   1.082       .  S
Cu70        N613   2.075       .  S
Cu71         N81   2.089       .  S
Cu72         N74   2.090       .  S
Cu72         N80   2.090   1_554  S
N73          N74   1.323       .  A
N73          C77   1.346       .  A
N73        Cu610   2.075   1_554  S
N74          C75   1.348       .  A
C75          C76   1.385       .  A
C75          H78   1.082       .  S
C76         C489   1.480       .  S
C76          C77   1.384       .  A
C77          H79   1.082       .  S
N80         N621   1.323       .  A
N80          C84   1.348       .  A
N81         N620   1.324       .  A
N81          C82   1.348       .  A
C82         C623   1.384       .  A
C82          H85   1.082       .  S
C83        C1037   1.480       .  S
C83          C84   1.388       .  A
C83         C622   1.381       .  A
C84          H86   1.082   1_556  S
N87          N88   1.322       .  A
N87          C91   1.347       .  A
N87         Cu95   2.086       .  S
N88          C89   1.346       .  A
N88         Cu94   2.073   1_554  S
C89          C90   1.385       .  A
C89          H92   1.082       .  S
C90         C537   1.479       .  S
C90          C91   1.384       .  A
C91          H93   1.082       .  S
Cu94        N637   2.073       .  S
Cu95        N105   2.086   1_554  S
Cu96         N98   2.087       .  S
Cu96        N104   2.087       .  S
N97          N98   1.323       .  A
N97         C101   1.346       .  A
N97        Cu634   2.075       .  S
N98          C99   1.347       .  A
C99         C100   1.384       .  A
C99         H102   1.082       .  S
C100        C533   1.478       .  S
C100        C101   1.385       .  A
C101        H103   1.082       .  S
N104        N645   1.323       .  A
N104        C108   1.346       .  A
N105        N644   1.324       .  A
N105        C106   1.348   1_556  A
C106        C647   1.386   1_554  A
C106        H109   1.082       .  S
C107        C485   1.481       .  S
C107        C108   1.384       .  A
C107        C646   1.386       .  A
C108        H110   1.082       .  S
C111       C1062   1.497       .  S
C111        C112   1.416       .  A
C111        C116   1.408       .  A
C112        C510   1.484       .  S
C112        C113   1.406   1_565  A
C113        C114   1.407       .  A
C113        H118   1.084       .  S
C114        C498   1.496       .  S
C114        C115   1.419       .  A
C115        C486   1.488       .  S
C115        C116   1.410   1_545  A
C116        H117   1.084       .  S
O119       Cu127   2.017       .  S
O119        C129   1.278       .  A
O120       Cu127   2.008       .  S
O120        C130   1.277       .  A
O121       Cu127   2.016       .  S
O121        C131   1.279       .  A
O122       Cu127   2.029       .  S
O122        C132   1.280       .  A
O123       Cu128   2.016       .  S
O123        C132   1.278       .  A
O124       Cu128   2.022       .  S
O124        C131   1.278       .  A
O125       Cu128   2.031       .  S
O125        C130   1.280       .  A
O126       Cu128   2.017       .  S
O126        C129   1.279       .  A
Cu127      Cu128   2.373       .  S
C129        C469   1.479       .  S
C130        C477   1.482       .  S
C131        C482   1.480       .  S
C132        C474   1.482       .  S
O133       Cu141   2.015       .  S
O133        C143   1.278       .  A
O134       Cu141   2.002       .  S
O134        C144   1.277       .  A
O135       Cu141   2.009       .  S
O135        C145   1.278       .  A
O136       Cu141   2.019       .  S
O136        C146   1.278       .  A
O137       Cu142   2.005       .  S
O137        C146   1.277       .  A
O138       Cu142   2.014       .  S
O138        C145   1.278       .  A
O139       Cu142   2.024       .  S
O139        C144   1.279       .  A
O140       Cu142   2.012       .  S
O140        C143   1.279       .  A
Cu141      Cu142   2.375       .  S
C143        C505   1.477       .  S
C144        C466   1.477       .  S
C145        C461   1.474       .  S
C146        C501   1.475       .  S
N147        N148   1.322       .  A
N147        C151   1.346       .  A
N147       Cu155   2.082       .  S
N148        C149   1.347       .  A
N148       Cu694   2.077       .  S
C149        C150   1.386       .  A
C149        H152   1.082       .  S
C150        C481   1.480       .  S
C150        C151   1.384       .  A
C151        H153   1.082       .  S
Cu154       N157   2.079       .  S
Cu154       N688   2.078       .  S
Cu155       N165   2.082       .  S
Cu156       N158   2.098       .  S
Cu156       N164   2.096       .  S
N157        N158   1.324       .  A
N157        C161   1.346       .  A
N158        C159   1.348       .  A
C159        C160   1.386       .  A
C159        H162   1.082       .  S
C160        C478   1.482       .  S
C160        C161   1.384       .  A
C161        H163   1.082       .  S
N164        N705   1.323       .  A
N164        C168   1.351       .  A
N165        N704   1.323       .  A
N165        C166   1.344       .  A
C166        C707   1.382       .  A
C166        H169   1.082       .  S
C167        C457   1.480       .  S
C167        C168   1.390       .  A
C167        C706   1.380       .  A
C168        H170   1.082       .  S
N171        N172   1.323       .  A
N171        C175   1.346       .  A
N171       Cu179   2.076       .  S
N172        C173   1.345       .  A
N172       Cu718   2.076       .  S
C173        C174   1.384       .  A
C173        H176   1.082       .  S
C174        C462   1.475       .  S
C174        C175   1.382       .  A
C175        H177   1.082       .  S
Cu178       N181   2.076       .  S
Cu178       N712   2.075       .  S
Cu179       N189   2.076       .  S
Cu180       N182   2.072       .  S
Cu180       N188   2.071       .  S
N181        N182   1.322       .  A
N181        C185   1.347       .  A
N182        C183   1.344       .  A
C183        C184   1.381       .  A
C183        H186   1.082       .  S
C184        C465   1.475       .  S
C184        C185   1.386       .  A
C185        H187   1.082       .  S
N188        N729   1.322       .  A
N188        C192   1.345       .  A
N189        N728   1.322   1_554  A
N189        C190   1.345       .  A
C190        C731   1.386   1_554  A
C190        H193   1.082       .  S
C191        C453   1.476       .  S
C191        C192   1.381       .  A
C191        C730   1.386       .  A
C192        H194   1.082       .  S
N195        N196   1.322       .  A
N195        C199   1.347       .  A
N195       Cu203   2.080       .  S
N196        C197   1.345       .  A
N196       Cu742   2.074   1_554  S
C197        C198   1.385       .  A
C197        H200   1.082       .  S
C198        C526   1.478       .  S
C198        C199   1.384       .  A
C199        H201   1.082       .  S
Cu202       N205   2.080       .  S
Cu202       N736   2.080       .  S
Cu203       N213   2.080   1_554  S
Cu204       N206   2.082       .  S
Cu204       N212   2.082       .  S
N205        N206   1.323       .  A
N205        C209   1.346       .  A
N206        C207   1.347       .  A
C207        C208   1.384       .  A
C207        H210   1.082       .  S
C208        C530   1.479       .  S
C208        C209   1.385       .  A
C209        H211   1.082       .  S
N212        N753   1.323       .  A
N212        C216   1.346       .  A
N213        N752   1.323       .  A
N213        C214   1.346   1_556  A
C214        C755   1.386   1_554  A
C214        H217   1.082       .  S
C215        C449   1.478       .  S
C215        C216   1.382       .  A
C215        C754   1.386       .  A
C216        H218   1.082       .  S
N219        N220   1.324       .  A
N219        C223   1.347       .  A
N219       Cu227   2.092       .  S
N220        C221   1.346       .  A
N220       Cu766   2.077       .  S
C221        C222   1.384       .  A
C221        H224   1.082       .  S
C222        C441   1.479       .  S
C222        C223   1.384       .  A
C223        H225   1.082       .  S
Cu226       N229   2.081       .  S
Cu226       N760   2.081       .  S
Cu227       N237   2.091       .  S
Cu228       N230   2.085       .  S
Cu228       N236   2.085       .  S
N229        N230   1.322       .  A
N229        C233   1.348       .  A
N230        C231   1.346       .  A
C231        C232   1.384       .  A
C231        H234   1.082       .  S
C232        C437   1.481       .  S
C232        C233   1.387       .  A
C233        H235   1.082       .  S
N236        N777   1.322       .  A
N236        C240   1.345       .  A
N237        N776   1.322   1_554  A
N237        C238   1.350       .  A
C238        C779   1.390       .  A
C238        H241   1.082       .  S
C239        C445   1.482       .  S
C239        C240   1.383       .  A
C239        C778   1.388       .  A
C240        H242   1.082       .  S
C243        C458   1.490       .  S
C243        C244   1.418       .  A
C243        C248   1.404   1_455  A
C244        C454   1.486       .  S
C244        C245   1.404       .  A
C245        C246   1.403   1_455  A
C245        H250   1.085       .  S
C246        C446   1.490       .  S
C246        C247   1.417       .  A
C247        C450   1.488       .  S
C247        C248   1.410       .  A
C248        H249   1.084       .  S
O251       Cu259   2.021       .  S
O251        C261   1.278       .  A
O252       Cu259   2.008       .  S
O252        C262   1.278       .  A
O253       Cu259   2.011       .  S
O253        C263   1.278       .  A
O254       Cu259   2.023       .  S
O254        C264   1.279       .  A
O255       Cu260   2.011       .  S
O255        C264   1.278       .  A
O256       Cu260   2.023       .  S
O256        C263   1.279       .  A
O257       Cu260   2.024       .  S
O257        C262   1.279       .  A
O258       Cu260   2.014       .  S
O258        C261   1.278       .  A
Cu259      Cu260   2.374       .  S
C261        C434   1.479       .  S
C262        C493   1.478       .  S
C263        C490   1.479       .  S
C264        C430   1.479       .  S
O265       Cu273   2.016       .  S
O265        C275   1.277       .  A
O266       Cu273   2.008       .  S
O266        C276   1.278       .  A
O267       Cu273   2.017       .  S
O267        C277   1.279       .  A
O268       Cu273   2.030       .  S
O268        C278   1.280       .  A
O269       Cu274   2.012       .  S
O269        C278   1.278       .  A
O270       Cu274   2.021       .  S
O270        C277   1.279       .  A
O271       Cu274   2.025       .  S
O271        C276   1.279       .  A
O272       Cu274   2.014       .  S
O272        C275   1.279       .  A
Cu273      Cu274   2.373       .  S
C275        C425   1.477       .  S
C276        C442   1.478       .  S
C277        C438   1.481       .  S
C278        C422   1.482       .  S
O279       Cu287   2.013       .  S
O279        C289   1.278       .  A
O280       Cu287   2.015       .  S
O280        C290   1.277       .  A
O281       Cu287   2.032       .  S
O281        C291   1.280       .  A
O282       Cu287   2.015       .  S
O282        C292   1.277       .  A
O283       Cu288   2.018       .  S
O283        C292   1.279       .  A
O284       Cu288   2.001       .  S
O284        C291   1.276       .  A
O285       Cu288   2.021       .  S
O285        C290   1.279       .  A
O286       Cu288   2.014       .  S
O286        C289   1.278       .  A
Cu287      Cu288   2.373       .  S
C289        C513   1.474       .  S
C290        C413   1.476       .  S
C291        C417   1.475       .  S
C292        C517   1.479       .  S
N293        N294   1.324       .  A
N293        C297   1.349       .  A
N293       Cu301   2.101       .  S
N294        C295   1.346       .  A
N294       Cu300   2.076       .  S
C295        C296   1.384       .  A
C295        H298   1.082       .  S
C296        C473   1.484       .  S
C296        C297   1.387       .  A
C297        H299   1.082       .  S
Cu300       N843   2.075       .  S
Cu301       N311   2.100       .  S
Cu302       N304   2.078       .  S
Cu302       N310   2.079       .  S
N303        N304   1.322       .  A
N303        C307   1.347       .  A
N303       Cu840   2.080       .  S
N304        C305   1.346       .  A
C305        C306   1.383       .  A
C305        H308   1.082       .  S
C306        C470   1.480       .  S
C306        C307   1.387       .  A
C307        H309   1.082       .  S
N310        N851   1.323   1_554  A
N310        C314   1.344       .  A
N311        N850   1.324       .  A
N311        C312   1.351       .  A
C312        C313   1.390       .  A
C312        H315   1.082       .  S
C313        C409   1.485       .  S
C313        C854   1.382       .  A
C314        C853   1.381       .  A
C314        H316   1.082       .  S
N317        N318   1.321       .  A
N317        C321   1.351       .  A
N317       Cu325   2.092       .  S
N318        C319   1.343       .  A
N318       Cu864   2.063       .  S
C319        C320   1.382       .  A
C319        H322   1.082       .  S
C320        C418   1.479       .  S
C320        C321   1.387       .  A
C321        H323   1.082       .  S
Cu324       N327   2.065       .  S
Cu324       N858   2.065       .  S
Cu325       N335   2.095       .  S
Cu326       N328   2.090       .  S
Cu326       N334   2.092       .  S
N327        N328   1.321       .  A
N327        C331   1.344       .  A
N328        C329   1.349       .  A
C329        C330   1.387       .  A
C329        H332   1.082       .  S
C330        C414   1.480       .  S
C330        C331   1.383       .  A
C331        H333   1.082       .  S
N334        N875   1.326       .  A
N334        C338   1.346       .  A
N335        N874   1.326       .  A
N335        C336   1.348       .  A
C336        C877   1.384       .  A
C336        H339   1.082       .  S
C337        C405   1.484       .  S
C337        C338   1.382       .  A
C337        C876   1.388       .  A
C338        H340   1.082       .  S
N341        N342   1.323       .  A
N341        C345   1.347       .  A
N341       Cu349   2.088       .  S
N342        C343   1.347       .  A
N342       Cu888   2.081   1_554  S
C343        C344   1.385       .  A
C343        H346   1.082       .  S
C344        C433   1.480       .  S
C344        C345   1.384       .  A
C345        H347   1.082       .  S
Cu348       N351   2.078       .  S
Cu348       N882   2.077       .  S
Cu349       N359   2.088   1_554  S
Cu350       N352   2.087       .  S
Cu350       N358   2.087       .  S
N351        N352   1.323       .  A
N351        C355   1.347       .  A
N352        C353   1.346       .  A
C353        C354   1.383       .  A
C353        H356   1.082       .  S
C354        C429   1.480       .  S
C354        C355   1.385       .  A
C355        H357   1.082       .  S
N358        N899   1.322       .  A
N358        C362   1.349       .  A
N359        N898   1.322       .  A
N359        C360   1.348   1_556  A
C360        C901   1.389   1_554  A
C360        H363   1.082       .  S
C361        C401   1.484       .  S
C361        C362   1.386       .  A
C361        C900   1.387       .  A
C362        H364   1.082       .  S
N365        N366   1.322       .  A
N365        C369   1.345       .  A
N365       Cu373   2.075       .  S
N366        C367   1.347       .  A
N366       Cu372   2.079       .  S
C367        C368   1.387       .  A
C367        H370   1.082       .  S
C368        C426   1.478       .  S
C368        C369   1.382       .  A
C369        H371   1.082       .  S
Cu372       N915   2.080       .  S
Cu373       N383   2.076       .  S
Cu374       N376   2.098       .  S
Cu374       N382   2.096       .  S
N375        N376   1.324       .  A
N375        C379   1.346       .  A
N375       Cu912   2.079       .  S
N376        C377   1.348       .  A
C377        C378   1.386       .  A
C377        H380   1.082       .  S
C378        C421   1.483       .  S
C378        C379   1.384       .  A
C379        H381   1.082       .  S
N382        N923   1.323   1_554  A
N382        C386   1.351       .  A
N383        N922   1.322       .  A
N383        C384   1.343       .  A
C384        C385   1.381       .  A
C384        H387   1.082       .  S
C385        C397   1.480       .  S
C385        C926   1.389       .  A
C386        C925   1.389   1_554  A
C386        H388   1.082       .  S
C389        C406   1.491       .  S
C389        C390   1.422       .  A
C389        C394   1.408       .  A
C390        C410   1.493       .  S
C390        C391   1.409       .  A
C391        C392   1.407       .  A
C391        H396   1.084       .  S
C392        C402   1.486       .  S
C392        C393   1.415       .  A
C393        C398   1.494       .  S
C393        C394   1.405       .  A
C394        H395   1.084       .  S
C397        C398   1.347       .  D
C397        H399   1.087       .  S
C398        H940   1.086       .  S
H400        C938   1.086       .  S
C401        C402   1.344       .  D
C401        H403   1.086       .  S
C402        H944   1.086       .  S
H404        C942   1.086       .  S
C405        C406   1.346       .  D
C405        H407   1.086       .  S
C406        H948   1.086       .  S
H408        C946   1.086   1_556  S
C409        C410   1.347       .  D
C409        H951   1.086       .  S
C410        H412   1.086       .  S
H411        C949   1.087       .  S
C413        C414   1.344       .  D
C413        H415   1.087       .  S
C414        H416   1.086       .  S
C417        C418   1.343       .  D
C417        H419   1.087       .  S
C418        H420   1.086       .  S
C421        C422   1.348       .  D
C421        H423   1.086       .  S
C422        H424   1.086       .  S
C425        C426   1.343       .  D
C425        H427   1.087       .  S
C426        H428   1.087       .  S
C429        C430   1.345       .  D
C429        H431   1.087       .  S
C430        H432   1.086       .  S
C433        C434   1.344       .  D
C433        H435   1.087       .  S
C434        H436   1.087       .  S
C437        C438   1.345       .  D
C437        H439   1.087       .  S
C438        H440   1.086       .  S
C441        C442   1.345       .  D
C441        H443   1.087       .  S
C442        H444   1.086       .  S
C445        C446   1.346       .  D
C445        H447   1.087       .  S
C446        H988   1.086       .  S
H448        C986   1.086       .  S
C449        C450   1.344       .  D
C449        H451   1.086       .  S
C450        H992   1.086       .  S
H452        C990   1.086       .  S
C453        C454   1.344       .  D
C453        H455   1.086       .  S
C454        H996   1.086       .  S
H456        C994   1.086       .  S
C457        C458   1.344       .  D
C457        H999   1.087       .  S
C458        H460   1.086       .  S
H459        C997   1.087       .  S
C461        C462   1.342       .  D
C461        H463   1.087       .  S
C462        H464   1.087       .  S
C465        C466   1.344       .  D
C465        H467   1.087       .  S
C466        H468   1.086       .  S
C469        C470   1.344       .  D
C469        H471   1.087       .  S
C470        H472   1.087       .  S
C473        C474   1.347       .  D
C473        H475   1.086       .  S
C474        H476   1.086       .  S
C477        C478   1.348       .  D
C477        H479   1.086       .  S
C478        H480   1.087       .  S
C481        C482   1.344       .  D
C481        H483   1.087       .  S
C482        H484   1.087       .  S
C485        C486   1.346       .  D
C485        H487   1.087       .  S
C486       H1028   1.086       .  S
H488       C1026   1.086       .  S
C489        C490   1.346       .  D
C489        H491   1.086       .  S
C490        H492   1.086       .  S
C493        C494   1.345       .  D
C493        H495   1.087       .  S
C494        H496   1.087       .  S
C497        C623   1.486       .  S
C497        C498   1.348       .  D
C497        H499   1.086       .  S
C498       H1040   1.086       .  S
H500       C1038   1.086   1_554  S
C501        C502   1.344       .  D
C501        H503   1.087       .  S
C502        H504   1.087       .  S
C505        C506   1.343       .  D
C505        H507   1.087       .  S
C506        H508   1.087       .  S
C509        C510   1.344       .  D
C509       H1051   1.087       .  S
C510        H512   1.086       .  S
H511       C1049   1.087       .  S
C513        C514   1.344       .  D
C513        H515   1.087       .  S
C514        H516   1.086       .  S
C517        C518   1.343       .  D
C517        H519   1.087       .  S
C518        H520   1.087       .  S
C521        C522   1.345   1_554  D
C521        H523   1.086       .  S
C522        C651   1.491       .  S
C522       H1064   1.086       .  S
H524       C1062   1.086       .  S
C525        C526   1.343       .  D
C525        H527   1.087       .  S
C526        H528   1.087       .  S
C529        C530   1.345       .  D
C529        H531   1.086       .  S
C530        H532   1.087       .  S
C533        C534   1.346       .  D
C533        H535   1.087       .  S
C534        H536   1.086       .  S
C537        C538   1.344       .  D
C537        H539   1.087       .  S
C538        H540   1.087       .  S
O541       Cu549   2.015       .  S
O541        C551   1.279       .  A
O542       Cu549   2.025       .  S
O542        C552   1.279       .  A
O543       Cu549   2.013       .  S
O543        C553   1.277       .  A
O544       Cu549   2.006       .  S
O544        C554   1.277       .  A
O545       Cu550   2.025       .  S
O545        C554   1.279       .  A
O546       Cu550   2.010       .  S
O546        C553   1.278       .  A
O547       Cu550   2.002       .  S
O547        C552   1.277       .  A
O548       Cu550   2.015       .  S
O548        C551   1.278       .  A
Cu549      Cu550   2.375       .  S
C551       C1065   1.477       .  S
C552       C1074   1.476       .  S
C553       C1078   1.473       .  S
C554       C1069   1.478       .  S
N555        N556   1.322       .  A
N555        C559   1.349       .  A
N555       Cu563   2.086       .  S
N556        C557   1.343       .  A
C557        C558   1.383       .  A
C557        H560   1.082       .  S
C558       C1058   1.479       .  S
C558        C559   1.386       .  A
C559        H561   1.082       .  S
Cu562       N565   2.061       .  S
Cu563       N573   2.086       .  S
Cu564       N566   2.099       .  S
Cu564       N572   2.100       .  S
N565        N566   1.322       .  A
N565        C569   1.342       .  A
N566        C567   1.351       .  A
C567        C568   1.389       .  A
C567        H570   1.082       .  S
C568       C1054   1.481       .  S
C568        C569   1.382       .  A
C569        H571   1.082       .  S
N572        C576   1.349       .  A
N573        C574   1.347       .  A
C574        H577   1.082       .  S
C575       C1061   1.489       .  S
C575        C576   1.386       .  A
C576        H578   1.082       .  S
N579        N580   1.324       .  A
N579        C583   1.346       .  A
N579       Cu587   2.083       .  S
N580        C581   1.346       .  A
N580       Cu586   2.078   1_556  S
C581        C582   1.384       .  A
C581        H584   1.082       .  S
C582       C1042   1.475       .  S
C582        C583   1.382       .  A
C583        H585   1.082       .  S
Cu587       N597   2.083       .  S
Cu588       N590   2.077       .  S
Cu588       N596   2.078       .  S
N589        N590   1.322       .  A
N589        C593   1.344       .  A
N590        C591   1.346       .  A
C591        C592   1.383       .  A
C591        H594   1.082       .  S
C592       C1046   1.475       .  S
C592        C593   1.384       .  A
C593        H595   1.082       .  S
N596        C600   1.345       .  A
N597        C598   1.349       .  A
C598        C599   1.387   1_556  A
C598        H601   1.082       .  S
C599       C1049   1.480       .  S
C600        H602   1.082       .  S
N603        N604   1.322       .  A
N603        C607   1.345       .  A
N603       Cu611   2.073       .  S
N604        C605   1.345       .  A
N604       Cu610   2.074       .  S
C605        C606   1.384       .  A
C605        H608   1.082       .  S
C606       C1034   1.473       .  S
C606        C607   1.382       .  A
C607        H609   1.082       .  S
Cu611       N621   2.074       .  S
Cu612       N614   2.099       .  S
Cu612       N620   2.099       .  S
N613        N614   1.323       .  A
N613        C617   1.345       .  A
N614        C615   1.350       .  A
C615        C616   1.387       .  A
C615        H618   1.082       .  S
C616       C1029   1.483       .  S
C616        C617   1.384       .  A
C617        H619   1.082       .  S
N620        C624   1.350       .  A
N621        C622   1.345       .  A
C622        H625   1.082       .  S
C623        C624   1.389       .  A
C624        H626   1.082       .  S
N627        N628   1.323       .  A
N627        C631   1.347       .  A
N627       Cu635   2.079       .  S
N628        C629   1.344       .  A
N628       Cu634   2.074       .  S
C629        C630   1.384       .  A
C629        H632   1.082       .  S
C630       C1077   1.475       .  S
C630        C631   1.383       .  A
C631        H633   1.082       .  S
Cu635       N645   2.079       .  S
Cu636       N638   2.088       .  S
Cu636       N644   2.088       .  S
N637        N638   1.323       .  A
N637        C641   1.344       .  A
N638        C639   1.348       .  A
C639        C640   1.385       .  A
C639        H642   1.082       .  S
C640       C1073   1.478       .  S
C640        C641   1.383       .  A
C641        H643   1.082       .  S
N644        C648   1.346       .  A
N645        C646   1.348       .  A
C646        H649   1.082       .  S
C647       C1025   1.482       .  S
C647        C648   1.384       .  A
C648        H650   1.082       .  S
C651        C652   1.416       .  A
C651        C656   1.409   1_566  A
C652       C1050   1.489       .  S
C652        C653   1.405   1_565  A
C653        C654   1.409       .  A
C653        H658   1.084       .  S
C654       C1038   1.488       .  S
C654        C655   1.415       .  A
C655       C1026   1.490   1_556  S
C655        C656   1.406   1_556  A
C656        H657   1.084   1_545  S
O659       Cu667   2.022       .  S
O659        C669   1.279       .  A
O660       Cu667   2.010       .  S
O660        C670   1.278       .  A
O661       Cu667   2.001       .  S
O661        C671   1.277       .  A
O662       Cu667   2.014       .  S
O662        C672   1.277       .  A
O663       Cu668   2.019       .  S
O663        C672   1.279       .  A
O664       Cu668   2.028       .  S
O664        C671   1.279       .  A
O665       Cu668   2.017       .  S
O665        C670   1.278       .  A
O666       Cu668   2.003       .  S
O666        C669   1.277       .  A
Cu667      Cu668   2.374       .  S
C669       C1009   1.477       .  S
C670       C1017   1.476       .  S
C671       C1022   1.478       .  S
C672       C1014   1.477       .  S
O673       Cu681   2.017       .  S
O673        C683   1.278       .  A
O674       Cu681   2.001       .  S
O674        C684   1.278       .  A
O675       Cu681   2.007       .  S
O675        C685   1.278       .  A
O676       Cu681   2.018       .  S
O676        C686   1.278       .  A
O677       Cu682   2.003       .  S
O677        C686   1.278       .  A
O678       Cu682   2.018       .  S
O678        C685   1.278       .  A
O679       Cu682   2.015       .  S
O679        C684   1.278       .  A
O680       Cu682   2.005       .  S
O680        C683   1.278       .  A
Cu681      Cu682   2.375       .  S
C683       C1045   1.474       .  S
C684       C1006   1.474       .  S
C685       C1001   1.474       .  S
C686       C1041   1.475       .  S
N687        N688   1.321       .  A
N687        C691   1.345       .  A
N687       Cu695   2.073       .  S
N688        C689   1.347       .  A
C689        C690   1.386       .  A
C689        H692   1.082       .  S
C690       C1021   1.477       .  S
C690        C691   1.382       .  A
C691        H693   1.082       .  S
Cu694       N697   2.077   1_554  S
Cu695       N705   2.073       .  S
Cu696       N698   2.087       .  S
Cu696       N704   2.086   1_556  S
N697        N698   1.324       .  A
N697        C701   1.345       .  A
N698        C699   1.347       .  A
C699        C700   1.383       .  A
C699        H702   1.082       .  S
C700       C1018   1.477       .  S
C700        C701   1.384       .  A
C701        H703   1.082       .  S
N704        C708   1.350   1_554  A
N705        C706   1.343       .  A
C706        H709   1.082       .  S
C707        C997   1.480       .  S
C707        C708   1.388   1_554  A
C708        H710   1.082       .  S
N711        N712   1.323       .  A
N711        C715   1.347       .  A
N711       Cu719   2.079       .  S
N712        C713   1.344       .  A
C713        C714   1.384       .  A
C713        H716   1.082       .  S
C714       C1002   1.476       .  S
C714        C715   1.384       .  A
C715        H717   1.082       .  S
Cu718       N721   2.076   1_554  S
Cu719       N729   2.079       .  S
Cu720       N722   2.069       .  S
Cu720       N728   2.070       .  S
N721        N722   1.322       .  A
N721        C725   1.346       .  A
N722        C723   1.344       .  A
C723        C724   1.380       .  A
C723        H726   1.082       .  S
C724       C1005   1.473       .  S
C724        C725   1.385       .  A
C725        H727   1.082       .  S
N728        C732   1.345       .  A
N729        C730   1.346       .  A
C730        H733   1.082       .  S
C731        C993   1.476       .  S
C731        C732   1.381       .  A
C732        H734   1.082       .  S
N735        N736   1.323       .  A
N735        C739   1.346       .  A
N735       Cu743   2.077       .  S
N736        C737   1.346       .  A
C737        C738   1.385       .  A
C737        H740   1.082       .  S
C738       C1066   1.478       .  S
C738        C739   1.382       .  A
C739        H741   1.082       .  S
Cu742       N745   2.075       .  S
Cu743       N753   2.078       .  S
Cu744       N746   2.086       .  S
Cu744       N752   2.086       .  S
N745        N746   1.323       .  A
N745        C749   1.346       .  A
N746        C747   1.347       .  A
C747        C748   1.384       .  A
C747        H750   1.082       .  S
C748       C1070   1.478       .  S
C748        C749   1.384       .  A
C749        H751   1.082       .  S
N752        C756   1.348       .  A
N753        C754   1.346       .  A
C754        H757   1.082       .  S
C755        C989   1.481       .  S
C755        C756   1.384       .  A
C756        H758   1.082       .  S
N759        N760   1.324       .  A
N759        C763   1.346       .  A
N759       Cu767   2.080       .  S
N760        C761   1.346       .  A
C761        C762   1.385       .  A
C761        H764   1.082       .  S
C762        C981   1.477       .  S
C762        C763   1.382       .  A
C763        H765   1.082       .  S
Cu766       N769   2.076   1_554  S
Cu767       N777   2.080       .  S
Cu768       N770   2.068       .  S
Cu768       N776   2.069       .  S
N769        N770   1.322       .  A
N769        C773   1.346       .  A
N770        C771   1.344       .  A
C771        C772   1.381       .  A
C771        H774   1.082       .  S
C772        C977   1.475       .  S
C772        C773   1.386       .  A
C773        H775   1.082       .  S
N776        C780   1.343       .  A
N777        C778   1.349       .  A
C778        H781   1.082       .  S
C779        C985   1.479       .  S
C779        C780   1.380   1_554  A
C780        H782   1.082       .  S
C783        C998   1.490       .  S
C783        C784   1.418       .  A
C783        C788   1.406   1_455  A
C784        C994   1.485       .  S
C784        C785   1.402       .  A
C785        C786   1.402   1_455  A
C785        H790   1.085       .  S
C786        C986   1.488       .  S
C786        C787   1.416       .  A
C787        C990   1.488       .  S
C787        C788   1.410       .  A
C788        H789   1.084   1_554  S
O791       Cu799   2.018       .  S
O791        C801   1.278       .  A
O792       Cu799   2.003       .  S
O792        C802   1.277       .  A
O793       Cu799   2.014       .  S
O793        C803   1.278       .  A
O794       Cu799   2.022       .  S
O794        C804   1.279       .  A
O795       Cu800   2.014       .  S
O795        C804   1.278       .  A
O796       Cu800   2.027       .  S
O796        C803   1.280       .  A
O797       Cu800   2.015       .  S
O797        C802   1.277       .  A
O798       Cu800   2.009       .  S
O798        C801   1.278       .  A
Cu799      Cu800   2.374       .  S
C801        C974   1.476       .  S
C802       C1033   1.472       .  S
C803       C1030   1.481       .  S
C804        C970   1.480       .  S
O805       Cu813   2.023       .  S
O805        C815   1.279       .  A
O806       Cu813   2.013       .  S
O806        C816   1.278       .  A
O807       Cu813   2.008       .  S
O807        C817   1.278       .  A
O808       Cu813   2.022       .  S
O808        C818   1.279       .  A
O809       Cu814   2.003       .  S
O809        C818   1.277       .  A
O810       Cu814   2.013       .  S
O810        C817   1.277       .  A
O811       Cu814   2.014       .  S
O811        C816   1.278       .  A
O812       Cu814   2.004       .  S
O812        C815   1.278       .  A
Cu813      Cu814   2.375       .  S
C815        C965   1.477       .  S
C816        C982   1.476       .  S
C817        C978   1.474       .  S
C818        C962   1.477       .  S
O819       Cu827   2.011       .  S
O819        C829   1.278       .  A
O820       Cu827   2.011       .  S
O820        C830   1.277       .  A
O821       Cu827   2.032       .  S
O821        C831   1.280       .  A
O822       Cu827   2.020       .  S
O822        C832   1.279       .  A
O823       Cu828   2.010       .  S
O823        C832   1.277       .  A
O824       Cu828   2.001       .  S
O824        C831   1.275       .  A
O825       Cu828   2.025       .  S
O825        C830   1.279       .  A
O826       Cu828   2.022       .  S
O826        C829   1.279       .  A
Cu827      Cu828   2.373       .  S
C829       C1053   1.477       .  S
C830        C953   1.476       .  S
C831        C957   1.471       .  S
C832       C1057   1.474       .  S
N833        N834   1.324       .  A
N833        C837   1.348       .  A
N833       Cu841   2.090       .  S
N834        C835   1.346       .  A
N834       Cu840   2.080   1_556  S
C835        C836   1.384       .  A
C835        H838   1.082       .  S
C836       C1013   1.480       .  S
C836        C837   1.384       .  A
C837        H839   1.082       .  S
Cu841       N851   2.090       .  S
Cu842       N844   2.082       .  S
Cu842       N850   2.082       .  S
N843        N844   1.322       .  A
N843        C847   1.346       .  A
N844        C845   1.346       .  A
C845        C846   1.384       .  A
C845        H848   1.082       .  S
C846       C1010   1.477       .  S
C846        C847   1.385       .  A
C847        H849   1.082       .  S
N850        C854   1.345       .  A
N851        C852   1.350       .  A
C852        C853   1.388   1_556  A
C852        H855   1.082       .  S
C853        C949   1.481       .  S
C854        H856   1.082       .  S
N857        N858   1.322       .  A
N857        C861   1.351       .  A
N857       Cu865   2.096       .  S
N858        C859   1.342       .  A
C859        C860   1.383       .  A
C859        H862   1.082       .  S
C860        C958   1.483       .  S
C860        C861   1.389       .  A
C861        H863   1.082       .  S
Cu864       N867   2.063   1_554  S
Cu865       N875   2.097       .  S
Cu866       N868   2.095       .  S
Cu866       N874   2.097   1_556  S
N867        N868   1.322       .  A
N867        C871   1.342       .  A
N868        C869   1.351       .  A
C869        C870   1.388       .  A
C869        H872   1.082       .  S
C870        C954   1.481       .  S
C870        C871   1.381       .  A
C871        H873   1.082       .  S
N874        C878   1.349   1_554  A
N875        C876   1.350       .  A
C876        H879   1.082       .  S
C877        C945   1.486       .  S
C877        C878   1.388   1_554  A
C878        H880   1.082       .  S
N881        N882   1.322       .  A
N881        C885   1.346       .  A
N881       Cu889   2.078       .  S
N882        C883   1.346       .  A
C883        C884   1.385       .  A
C883        H886   1.082       .  S
C884        C973   1.477       .  S
C884        C885   1.383       .  A
C885        H887   1.082       .  S
Cu888       N891   2.082       .  S
Cu889       N899   2.078       .  S
Cu890       N892   2.083       .  S
Cu890       N898   2.083       .  S
N891        N892   1.323       .  A
N891        C895   1.347       .  A
N892        C893   1.346       .  A
C893        C894   1.383       .  A
C893        H896   1.082       .  S
C894        C969   1.480       .  S
C894        C895   1.386       .  A
C895        H897   1.082       .  S
N898        C902   1.347       .  A
N899        C900   1.344       .  A
C900        H903   1.081       .  S
C901        C941   1.485       .  S
C901        C902   1.384       .  A
C902        H904   1.082       .  S
N905        N906   1.321       .  A
N905        C909   1.344       .  A
N905       Cu913   2.072       .  S
N906        C907   1.348       .  A
N906       Cu912   2.078   1_556  S
C907        C908   1.386       .  A
C907        H910   1.082       .  S
C908        C966   1.476       .  S
C908        C909   1.382       .  A
C909        H911   1.082       .  S
Cu913       N923   2.072       .  S
Cu914       N916   2.090       .  S
Cu914       N922   2.090       .  S
N915        N916   1.325       .  A
N915        C919   1.347       .  A
N916        C917   1.346       .  A
C917        C918   1.383       .  A
C917        H920   1.082       .  S
C918        C961   1.477       .  S
C918        C919   1.384       .  A
C919        H921   1.082       .  S
N922        C926   1.352       .  A
N923        C924   1.343       .  A
C924        C925   1.380       .  A
C924        H927   1.082       .  S
C925        C937   1.479       .  S
C926        H928   1.082       .  S
C929        C946   1.495       .  S
C929        C930   1.419   1_554  A
C929        C934   1.411       .  A
C930        C950   1.490       .  S
C930        C931   1.407       .  A
C931        C932   1.406       .  A
C931        H936   1.084       .  S
C932        C942   1.491   1_556  S
C932        C933   1.416   1_556  A
C933        C938   1.491       .  S
C933        C934   1.407       .  A
C934        H935   1.083       .  S
C937        C938   1.346   1_556  D
C937        H939   1.087       .  S
C941        C942   1.344   1_556  D
C941        H943   1.086       .  S
C945        C946   1.347       .  D
C945        H947   1.086       .  S
C949        C950   1.345   1_554  D
C950        H952   1.086       .  S
C953        C954   1.345       .  D
C953        H955   1.087       .  S
C954        H956   1.086       .  S
C957        C958   1.344       .  D
C957        H959   1.086       .  S
C958        H960   1.086       .  S
C961        C962   1.345       .  D
C961        H963   1.087       .  S
C962        H964   1.086       .  S
C965        C966   1.343       .  D
C965        H967   1.086       .  S
C966        H968   1.087       .  S
C969        C970   1.345       .  D
C969        H971   1.086       .  S
C970        H972   1.086       .  S
C973        C974   1.344       .  D
C973        H975   1.087       .  S
C974        H976   1.086       .  S
C977        C978   1.342       .  D
C977        H979   1.087       .  S
C978        H980   1.086       .  S
C981        C982   1.343       .  D
C981        H983   1.087       .  S
C982        H984   1.087       .  S
C985        C986   1.344       .  D
C985        H987   1.087   1_554  S
C989        C990   1.345   1_556  D
C989        H991   1.086       .  S
C993        C994   1.344   1_556  D
C993        H995   1.086       .  S
C997        C998   1.346       .  D
C998       H1000   1.086   1_554  S
C1001      C1002   1.344       .  D
C1001      H1003   1.086       .  S
C1002      H1004   1.087       .  S
C1005      C1006   1.342       .  D
C1005      H1007   1.087       .  S
C1006      H1008   1.086       .  S
C1009      C1010   1.345       .  D
C1009      H1011   1.086       .  S
C1010      H1012   1.087       .  S
C1013      C1014   1.344       .  D
C1013      H1015   1.087       .  S
C1014      H1016   1.087       .  S
C1017      C1018   1.344       .  D
C1017      H1019   1.087       .  S
C1018      H1020   1.087       .  S
C1021      C1022   1.345       .  D
C1021      H1023   1.087       .  S
C1022      H1024   1.086       .  S
C1025      C1026   1.347   1_556  D
C1025      H1027   1.087       .  S
C1029      C1030   1.347       .  D
C1029      H1031   1.086       .  S
C1030      H1032   1.086       .  S
C1033      C1034   1.342       .  D
C1033      H1035   1.087       .  S
C1034      H1036   1.087       .  S
C1037      C1038   1.343       .  D
C1037      H1039   1.086       .  S
C1041      C1042   1.343       .  D
C1041      H1043   1.087       .  S
C1042      H1044   1.087       .  S
C1045      C1046   1.343       .  D
C1045      H1047   1.086       .  S
C1046      H1048   1.087       .  S
C1049      C1050   1.345   1_554  D
C1050      H1052   1.086       .  S
C1053      C1054   1.347       .  D
C1053      H1055   1.086       .  S
C1054      H1056   1.086       .  S
C1057      C1058   1.344       .  D
C1057      H1059   1.087       .  S
C1058      H1060   1.086       .  S
C1061      C1062   1.348       .  D
C1061      H1063   1.086       .  S
C1065      C1066   1.343       .  D
C1065      H1067   1.087       .  S
C1066      H1068   1.087       .  S
C1069      C1070   1.345       .  D
C1069      H1071   1.086       .  S
C1070      H1072   1.087       .  S
C1073      C1074   1.346       .  D
C1073      H1075   1.087       .  S
C1074      H1076   1.086       .  S
C1077      C1078   1.342       .  D
C1077      H1079   1.087       .  S
C1078      H1080   1.087       .  S
