geometry optimzed in LAMMPS
_audit_creation_date              2020-11-30 
_audit_creation_method            'lammps2cif' 
_symmetry_space_group_name_H-M    'P1' 
_symmetry_Int_Tables_number       1 
_symmetry_cell_setting            triclinic 
loop_ 
_symmetry_equiv_pos_as_xyz 
  x,y,z 
_cell_length_a                    52.52390487 
_cell_length_b                    42.47568378278879 
_cell_length_c                    39.92326114889264 
_cell_angle_alpha                 92.2966228779536 
_cell_angle_beta                  90.30650373391005 
_cell_angle_gamma                 89.8539519528793 
loop_ 
_atom_site_label 
_atom_site_type_symbol 
_atom_site_fract_x 
_atom_site_fract_y 
_atom_site_fract_z 
_atom_site_charge 
N1          N  0.62070680  0.04830642  0.22683629    -0.27500
N2          N  0.64517767  0.04089665  0.22455202    -0.35300
C3          C  0.65109131  0.02033769  0.24801114     0.00900
C4          C  0.62948582  0.01391051  0.26601041     0.06900
C5          C  0.61041767  0.03190700  0.25182938    -0.06200
H6          H  0.67003949  0.01112603  0.25202411     0.07600
H7          H  0.59084423  0.03390593  0.25994914     0.08800
Cu8        Cu  0.67162911  0.05966080  0.19250996     0.44200
Cu9        Cu  0.60345165  0.08253369  0.19722110     0.42000
Cu10       Cu  0.65148761  0.12582991  0.15109255     0.43900
N11         N  0.69705118  0.08703758  0.16691967    -0.34800
N12         N  0.68946051  0.11319175  0.15313922    -0.29100
C13         C  0.70993931  0.12936713  0.14351815    -0.05200
C14         C  0.73148122  0.11221569  0.15104958     0.07000
C15         C  0.72265750  0.08544927  0.16586041     0.00800
H16         H  0.70925612  0.15253344  0.13321836     0.08500
H17         H  0.73402755  0.06769163  0.17765873     0.07500
N18         N  0.61267099  0.13311979  0.14722262    -0.36300
N19         N  0.59481726  0.11822993  0.16366096    -0.28500
C20         C  0.57182708  0.12878610  0.15342537    -0.03700
C21         C  0.57563178  0.15098527  0.12921584     0.04900
C22         C  0.60172304  0.15293057  0.12611115     0.03000
H23         H  0.55373999  0.12010162  0.16196452     0.08100
H24         H  0.61210035  0.16746920  0.10924368     0.06900
N25         N  0.61825852  0.45821040  0.33242717    -0.27500
N26         N  0.64285059  0.46426846  0.33605403    -0.35300
C27         C  0.64981465  0.98555646  0.31399908     0.00900
C28         C  0.62877569  0.99382844  0.29544203     0.06900
C29         C  0.60891552  0.47620013  0.30790256    -0.06200
H30         H  0.66919316  0.99340065  0.31073675     0.07600
H31         H  0.58958273  0.47508931  0.29846200     0.08800
Cu32       Cu  0.66820884  0.44063036  0.36592670     0.44200
Cu33       Cu  0.60036058  0.42232726  0.35856634     0.42000
Cu34       Cu  0.64878695  0.36593064  0.38667275     0.43900
N35         N  0.69380157  0.40774073  0.38276884    -0.34800
N36         N  0.68677084  0.37854718  0.38789363    -0.29100
C37         C  0.70761130  0.36092200  0.39329200    -0.05200
C38         C  0.72873209  0.38024648  0.39190787     0.07000
C39         C  0.71927838  0.40978979  0.38529512     0.00800
H40         H  0.70743607  0.33586294  0.39719454     0.08500
H41         H  0.73019597  0.43063631  0.38030492     0.07500
N42         N  0.61008982  0.36200455  0.39473702    -0.36300
N43         N  0.59228633  0.38235628  0.38624795    -0.28500
C44         C  0.56985178  0.37304037  0.39906758    -0.03700
C45         C  0.57392588  0.34555086  0.41628016     0.04900
C46         C  0.59963198  0.33948070  0.41272280     0.03000
H47         H  0.55200490  0.38541623  0.39616896     0.08100
H48         H  0.61031486  0.32063154  0.42369067     0.06900
N49         N  0.36554854  0.08482089  0.28938216    -0.27500
N50         N  0.34047734  0.08310893  0.28679589    -0.35300
C51         C  0.33425184  0.06240732  0.26192044     0.00900
C52         C  0.35632776  0.05004186  0.24806834     0.06900
C53         C  0.37595066  0.06460749  0.26621021    -0.06200
H54         H  0.31491340  0.05725414  0.25406818     0.07600
H55         H  0.39616428  0.06170777  0.26199352     0.08800
Cu56       Cu  0.31482274  0.11062513  0.31412194     0.44200
Cu57       Cu  0.38311991  0.11745152  0.32256325     0.42000
Cu58       Cu  0.33815779  0.18051056  0.35289851     0.43900
N59         N  0.29086818  0.14531123  0.33365725    -0.34800
N60         N  0.29943708  0.17274300  0.34559266    -0.29100
C61         C  0.27946615  0.19189940  0.35238792    -0.05200
C62         C  0.25735656  0.17529426  0.34494372     0.07000
C63         C  0.26528275  0.14585967  0.33322719     0.00800
H64         H  0.28091792  0.21597143  0.36211972     0.08500
H65         H  0.25337987  0.12680930  0.32351828     0.07500
N66         N  0.37646256  0.17758150  0.36597833    -0.36300
N67         N  0.39242883  0.15486327  0.35610479    -0.28500
C68         C  0.41466845  0.15906839  0.37269266    -0.03700
C69         C  0.41258366  0.18570696  0.39361020     0.04900
C70         C  0.38814976  0.19667162  0.38889078     0.03000
H71         H  0.43077883  0.14319503  0.37070956     0.08100
H72         H  0.37905828  0.21615718  0.40243911     0.06900
N73         N  0.36768420  0.48841726  0.18284711    -0.27500
N74         N  0.34398596  0.49698624  0.17635453    -0.35300
C75         C  0.33717908  0.02063832  0.19765499     0.00900
C76         C  0.35740230  0.02771697  0.21878560     0.06900
C77         C  0.37663576  0.00699195  0.20860359    -0.06200
H78         H  0.31830922  0.03088582  0.19866893     0.07600
H79         H  0.39511084  0.00437016  0.22028431     0.08800
Cu80       Cu  0.31901273  0.47362246  0.14398295     0.44200
Cu81       Cu  0.38453929  0.44894817  0.15851234     0.42000
Cu82       Cu  0.33548235  0.39564010  0.12263194     0.43900
N83         N  0.29255481  0.44157682  0.12531911    -0.34800
N84         N  0.29852963  0.41168470  0.11946592    -0.29100
C85         C  0.27719543  0.39517615  0.11284184    -0.05200
C86         C  0.25682252  0.41583324  0.11440864     0.07000
C87         C  0.26720741  0.44511306  0.12224386     0.00800
H88         H  0.27651310  0.36991600  0.10824170     0.08500
H89         H  0.25699511  0.46686489  0.12764440     0.07500
N90         N  0.37412000  0.38738562  0.11987781    -0.36300
N91         N  0.39219710  0.40657496  0.13145297    -0.28500
C92         C  0.41495759  0.39432747  0.12218806    -0.03700
C93         C  0.41092059  0.36599137  0.10409055     0.04900
C94         C  0.38472318  0.36263831  0.10336907     0.03000
H95         H  0.43295630  0.40580704  0.12746330     0.08100
H96         H  0.37389032  0.34368398  0.09138555     0.06900
C97         C  0.51043172  0.22923261  0.04630991     0.86300
C98         C  0.52765170  0.25010829  0.02535998    -0.53900
C99         C  0.51489643  0.26891528  0.50395302     0.09200
C100        C  0.48586488  0.26640958  0.50634535     0.20200
C101        C  0.49272513  0.25339307  0.06456656    -0.54600
C102        C  0.47980450  0.27277466  0.04371232     0.09300
C103        C  0.49300068  0.21190418  0.02065167    -0.54200
C104        C  0.48007734  0.23115671  0.49976359     0.09900
H105        H  0.54829687  0.24976521  0.02693711     0.14400
H106        H  0.47604671  0.28232003  0.48913653     0.00200
H107        H  0.49075042  0.25605826  0.09150020     0.14700
H108        H  0.49140965  0.18641448  0.01889860     0.14500
N109        N  0.86713425  0.21188346  0.20623111    -0.27500
N110        N  0.84206086  0.21455997  0.20741784    -0.35300
C111        C  0.83561550  0.23584314  0.23152493     0.00900
C112        C  0.85750061  0.24760020  0.24652901     0.06900
C113        C  0.87732093  0.23209969  0.22973004    -0.06200
H114        H  0.81619154  0.24149511  0.23840082     0.07600
H115        H  0.89743722  0.23413632  0.23533196     0.08800
Cu116      Cu  0.81627341  0.18713287  0.18034410     0.44200
Cu117      Cu  0.88466985  0.17798336  0.17418313     0.42000
Cu118      Cu  0.83815828  0.11927281  0.13770887     0.43900
N119        N  0.79162208  0.15328562  0.16101438    -0.34800
N120        N  0.79975402  0.12640288  0.14718691    -0.29100
C121        C  0.77961490  0.10741561  0.14093242    -0.05200
C122        C  0.75782836  0.12364594  0.15078903     0.07000
C123        C  0.76613566  0.15261931  0.16330897     0.00800
H124        H  0.78074264  0.08370899  0.13007154     0.08500
H125        H  0.75463657  0.17120567  0.17481920     0.07500
N126        N  0.87651582  0.12138690  0.12579580    -0.36300
N127        N  0.89338390  0.14179548  0.13854427    -0.28500
C128        C  0.91580703  0.13677411  0.12278429    -0.03700
C129        C  0.91270988  0.11225717  0.09913105     0.04900
C130        C  0.88761929  0.10332868  0.10163095     0.03000
H131        H  0.93274499  0.15082417  0.12712012     0.08100
H132        H  0.87785745  0.08562944  0.08616525     0.06900
N133        N  0.86678244  0.30773562  0.31409353    -0.27500
N134        N  0.84344562  0.29765950  0.31994435    -0.35300
C135        C  0.83750826  0.27445400  0.29760306     0.00900
C136        C  0.85791266  0.26917743  0.27648734     0.06900
C137        C  0.87635441  0.29055040  0.28773522    -0.06200
H138        H  0.81913209  0.26301991  0.29613028     0.07600
H139        H  0.89473316  0.29444142  0.27654243     0.08800
Cu140      Cu  0.81774201  0.31725610  0.35396480     0.44200
Cu141      Cu  0.88282380  0.34664339  0.34068470     0.42000
Cu142      Cu  0.83506347  0.38897940  0.39279959     0.43900
N143        N  0.79132430  0.34582873  0.37857988    -0.34800
N144        N  0.79766472  0.37382322  0.39145462    -0.29100
C145        C  0.77638167  0.38988360  0.39982994    -0.05200
C146        C  0.75566335  0.37079846  0.39223422     0.07000
C147        C  0.76582129  0.34295322  0.37895729     0.00800
H148        H  0.77597159  0.41414465  0.40917002     0.08500
H149        H  0.75540903  0.32329359  0.36761834     0.07500
N150        N  0.87326168  0.40064348  0.39115404    -0.36300
N151        N  0.89078053  0.38620680  0.37239123    -0.28500
C152        C  0.91314759  0.40138575  0.37743235    -0.03700
C153        C  0.90935773  0.42667372  0.40015965     0.04900
C154        C  0.88388266  0.42495645  0.40850069     0.03000
H155        H  0.93074392  0.39490816  0.36496550     0.08100
H156        H  0.87359904  0.44018649  0.42608124     0.06900
N157        N  0.11608085  0.33596974  0.16518520    -0.27500
N158        N  0.14029305  0.32792955  0.16164335    -0.35300
C159        C  0.14651542  0.30687225  0.18435708     0.00900
C160        C  0.12539801  0.30097855  0.20344476     0.06900
C161        C  0.10620501  0.31962243  0.19048684    -0.06200
H162        H  0.16563285  0.29811284  0.18814969     0.07600
H163        H  0.08720627  0.32291437  0.20037391     0.08800
Cu164      Cu  0.16669398  0.35005753  0.13280254     0.44200
Cu165      Cu  0.10003744  0.37265254  0.13822402     0.42000
Cu166      Cu  0.15022085  0.42439148  0.10582598     0.43900
N167        N  0.19379016  0.38164190  0.11834210    -0.34800
N168        N  0.18779126  0.41057817  0.11036874    -0.29100
C169        C  0.20929480  0.42727596  0.10694790    -0.05200
C170        C  0.22973730  0.40757069  0.11273913     0.07000
C171        C  0.21923329  0.37882255  0.11982848     0.00800
H172        H  0.20996888  0.45194275  0.10123039     0.08500
H173        H  0.22925367  0.35797238  0.12742297     0.07500
N174        N  0.11152403  0.43044144  0.09850064    -0.36300
N175        N  0.09321426  0.41193735  0.10902913    -0.28500
C176        C  0.07070173  0.42264066  0.09746554    -0.03700
C177        C  0.07520550  0.44911137  0.07897981     0.04900
C178        C  0.10126502  0.45321560  0.08040184     0.03000
H179        H  0.05246440  0.41200464  0.10227631     0.08100
H180        H  0.11217318  0.47104976  0.06827738     0.06900
N181        N  0.11786365  0.25053380  0.27515393    -0.27500
N182        N  0.14224506  0.25825402  0.27725702    -0.35300
C183        C  0.14780574  0.27789556  0.25296066     0.00900
C184        C  0.12606367  0.28326720  0.23450304     0.06900
C185        C  0.10723615  0.26573733  0.24935613    -0.06200
H186        H  0.16670685  0.28675425  0.24835406     0.07600
H187        H  0.08774904  0.26282976  0.24090210     0.08000
Cu188      Cu  0.16930072  0.23981212  0.30897019     0.44200
Cu189      Cu  0.10176207  0.21672199  0.30549863     0.42000
Cu190      Cu  0.15099330  0.17519316  0.35369012     0.43900
N191        N  0.19585179  0.21246693  0.33304816    -0.34800
N192        N  0.18892045  0.18685532  0.34821965    -0.29100
C193        C  0.20983032  0.17038168  0.35623450    -0.05200
C194        C  0.23097298  0.18683803  0.34619671     0.07000
C195        C  0.22144666  0.21345921  0.33160917     0.00800
H196        H  0.20962492  0.14752833  0.36726235     0.08500
H197        H  0.23217677  0.23073529  0.31839702     0.07500
N198        N  0.11225008  0.16688394  0.35628853    -0.36300
N199        N  0.09427426  0.18111226  0.33902871    -0.28500
C200        C  0.07148114  0.16915282  0.34742158    -0.03700
C201        C  0.07550515  0.14636676  0.37087577     0.04900
C202        C  0.10147669  0.14589803  0.37604294     0.03000
H203        H  0.05334285  0.17679322  0.33763018     0.08100
H204        H  0.11185610  0.13131473  0.39306693     0.06900
C205        C  0.01035373  0.06517020  0.44938589     0.86300
C206        C  0.02751074  0.04618380  0.47265730    -0.53900
C207        C  0.01476896  0.02758209  0.99408179     0.09200
C208        C  0.98578283  0.02831795  0.98932567     0.20200
C209        C  0.99422286  0.03925911  0.43090818    -0.54600
C210        C  0.98153259  0.02009560  0.45183655     0.09300
C211        C  0.99101095  0.08234645  0.47247614    -0.54200
C212        C  0.97856689  0.06333849  0.99368974     0.09900
H213        H  0.04815691  0.04677489  0.47167803     0.14400
H214        H  0.97526364  0.51289028  0.00628096     0.00200
H215        H  0.99234713  0.03570473  0.40405083     0.14700
H216        H  0.98767209  0.10757643  0.47245193     0.14500
C217        C  0.05736726  0.13028391  0.42424379    -0.26500
C218        C  0.05669580  0.12781454  0.38924190    -0.14600
C219        C  0.03963565  0.10624569  0.37332394     0.36100
C220        C  0.02451358  0.08696488  0.39295072    -0.25900
C221        C  0.02578159  0.08822463  0.42840360    -0.15200
C222        C  0.04215461  0.11147827  0.44390233     0.37200
N223        N  0.04422205  0.11695756  0.47951640    -0.89400
H224        H  0.07017991  0.14705726  0.43665419     0.18300
H225        H  0.01207636  0.07076950  0.37952068     0.18300
N226        N  0.03790451  0.10188767  0.33746829    -0.88500
H227        H  0.05127908  0.09709640  0.99087907     0.35600
H228        H  0.02664419  0.12344789  0.98961151     0.40700
H229        H  0.05091060  0.11573991  0.32510556     0.40400
H230        H  0.01972036  0.10908676  0.33018741     0.35200
C231        C  0.06205918  0.50154138  0.05974475    -0.26500
C232        C  0.05712501  0.46909554  0.06043682    -0.14600
C233        C  0.03645111  0.45641864  0.04156880     0.36100
C234        C  0.02192246  0.47631263  0.02139494    -0.25900
C235        C  0.02806416  0.50829002  0.01909613    -0.15200
C236        C  0.04764264  0.52128658  0.03959213     0.37200
N237        N  0.05280526  0.05451743  0.03986870    -0.89400
H238        H  0.07747665  0.51153486  0.07481631     0.18300
H239        H  0.00654201  0.46649840  0.00617510     0.18300
N240        N  0.03100016  0.42328951  0.04164081    -0.88500
H241        H  0.06781025  0.06031776  0.05626769     0.35600
H242        H  0.03667714  0.06626847  0.04926548     0.40700
H243        H  0.04644041  0.41132760  0.03061933     0.40400
H244        H  0.01512465  0.41789243  0.02659024     0.35200
C245        C  0.95375504  0.44239752  0.41708065    -0.26500
C246        C  0.92806810  0.45080538  0.41271870    -0.14600
C247        C  0.92047245  0.48220543  0.42084684     0.36100
C248        C  0.93832533  0.50381618  0.43437059    -0.25900
C249        C  0.96377706  0.49530085  0.43908114    -0.15200
C250        C  0.97172918  0.46423132  0.43006964     0.37200
N251        N  0.99773961  0.45408025  0.43328444    -0.89400
H252        H  0.95991264  0.41855081  0.41070427     0.18300
H253        H  0.93247458  0.02779393  0.44058645     0.18300
N254        N  0.89486737  0.49245269  0.41441272    -0.88500
H255        H  0.99821605  0.43638416  0.45074038     0.35600
H256        H  0.00944724  0.47220064  0.44269975     0.40700
H257        H  0.89200482  0.49104844  0.38845344     0.40400
H258        H  0.89241970  0.51610985  0.42197851     0.35200
C259        C  0.92493635  0.10686241  0.03954158    -0.26500
C260        C  0.93070497  0.10077621  0.07304610    -0.14600
C261        C  0.95228893  0.08215535  0.08035987     0.36100
C262        C  0.96721165  0.06975514  0.05389384    -0.25900
C263        C  0.96146162  0.07595809  0.02044880    -0.15200
C264        C  0.94019051  0.09484265  0.01314963     0.37200
N265        N  0.93396550  0.10134049  0.47900430    -0.89400
H266        H  0.90830200  0.12092035  0.03397971     0.18300
H267        H  0.98366638  0.05540468  0.05954116     0.18300
N268        N  0.95923254  0.07447880  0.11396105    -0.88500
H269        H  0.91783217  0.11575356  0.47797716     0.35600
H270        H  0.92914946  0.07998025  0.46673665     0.40700
H271        H  0.94662983  0.08421762  0.13163501     0.40400
H272        H  0.97703559  0.08453841  0.11918326     0.35200
C273        C  0.47119954  0.31838233  0.08326330    -0.26500
C274        C  0.46255211  0.29824123  0.05683217    -0.14600
C275        C  0.43716847  0.30134382  0.04547381     0.36100
C276        C  0.42129734  0.32419209  0.06056203    -0.25900
C277        C  0.42962160  0.34387553  0.08763394    -0.15200
C278        C  0.45499539  0.34080429  0.09911391     0.37200
N279        N  0.46405866  0.35944681  0.12751977    -0.89400
H280        H  0.49059318  0.31599012  0.09221952     0.18300
H281        H  0.40203182  0.32610350  0.05109448     0.18300
N282        N  0.42628237  0.28050465  0.02021253    -0.88500
H283        H  0.48320019  0.35453137  0.13240085     0.35600
H284        H  0.45388004  0.35263419  0.14846873     0.40700
H285        H  0.42916469  0.25728476  0.52707198     0.40400
H286        H  0.43504037  0.28397219  0.49731158     0.35200
C287        C  0.42884695  0.18417177  0.45180820    -0.26500
C288        C  0.43051656  0.19676285  0.42002772    -0.14600
C289        C  0.44817856  0.22081228  0.41438262     0.36100
C290        C  0.46406228  0.23179753  0.44083663    -0.25900
C291        C  0.46259987  0.21909115  0.47273243    -0.15200
C292        C  0.44455866  0.19520932  0.47835640     0.37200
N293        N  0.44185383  0.18268626  0.51107873    -0.89400
H294        H  0.41488683  0.16602284  0.45601941     0.18300
H295        H  0.47788516  0.25004133  0.43641210     0.18300
N296        N  0.44967470  0.23417136  0.38194341    -0.88500
H297        H  0.42778303  0.16532169  0.51088270     0.35600
H298        H  0.43555791  0.20093452  0.02734420     0.40700
H299        H  0.45583552  0.21641298  0.36496249     0.40400
H300        H  0.46345938  0.25188828  0.38200755     0.35200
C301        C  0.56042762  0.29374337  0.43653139    -0.26500
C302        C  0.55609581  0.32638975  0.43597963    -0.14600
C303        C  0.53652318  0.33984886  0.45617046     0.36100
C304        C  0.52256076  0.32049465  0.47739100    -0.25900
C305        C  0.52812174  0.28825209  0.47919466    -0.15200
C306        C  0.54660278  0.27457001  0.45766837     0.37200
N307        N  0.55124511  0.24117347  0.45736561    -0.89400
H308        H  0.57492801  0.28308548  0.42052776     0.18300
H309        H  0.50804779  0.33081732  0.49363140     0.18300
N310        N  0.53155722  0.37312671  0.45617298    -0.88500
H311        H  0.56547732  0.23480662  0.44017035     0.35600
H312        H  0.53458465  0.22988508  0.44897893     0.40700
H313        H  0.54761942  0.38467368  0.46612456     0.40400
H314        H  0.51642915  0.37909761  0.47213934     0.35200
C315        C  0.52010993  0.20243218  0.10210542    -0.26500
C316        C  0.52565168  0.20624158  0.06785329    -0.14600
C317        C  0.54583933  0.18793711  0.05354325     0.36100
C318        C  0.56144924  0.16991671  0.07415620    -0.25900
C319        C  0.55680119  0.16790922  0.10852633    -0.15200
C320        C  0.53543951  0.18353316  0.12247529     0.37200
N321        N  0.52976058  0.18091882  0.15743708    -0.89400
H322        H  0.50381649  0.21391544  0.11348044     0.18300
H323        H  0.57746185  0.15716000  0.06321379     0.18300
N324        N  0.55097837  0.18827226  0.01818584    -0.88500
H325        H  0.51330016  0.19362829  0.16380589     0.35600
H326        H  0.54467897  0.19144168  0.17121009     0.40700
H327        H  0.53590115  0.17697476  0.50553829     0.40400
H328        H  0.56729224  0.17512794  0.51215694     0.35200
N329        N  0.62070686  0.04830622  0.72683613    -0.27500
N330        N  0.64517772  0.04089644  0.72455171    -0.35300
C331        C  0.65109147  0.02033753  0.74801083     0.00900
C332        C  0.62948606  0.01391040  0.76601026     0.06900
C333        C  0.61041784  0.03190686  0.75182934    -0.06200
H334        H  0.67003967  0.01112588  0.75202373     0.07600
H335        H  0.59084443  0.03390581  0.75994925     0.08800
Cu336      Cu  0.67162903  0.05966079  0.69250965     0.44200
Cu337      Cu  0.60345156  0.08253349  0.69722100     0.42000
Cu338      Cu  0.65148749  0.12582993  0.65109250     0.43900
N339        N  0.69705108  0.08703765  0.66691944    -0.34800
N340        N  0.68946041  0.11319188  0.65313910    -0.29100
C341        C  0.70993920  0.12936733  0.64351809    -0.05200
C342        C  0.73148111  0.11221587  0.65104949     0.07000
C343        C  0.72265740  0.08544936  0.66586017     0.00800
H344        H  0.70925599  0.15253365  0.63321834     0.08500
H345        H  0.73402747  0.06769165  0.67765836     0.07500
N346        N  0.61267085  0.13311960  0.64722240    -0.36300
N347        N  0.59481713  0.11822967  0.66366070    -0.28500
C348        C  0.57182694  0.12878581  0.65342510    -0.03700
C349        C  0.57563164  0.15098504  0.62921561     0.04900
C350        C  0.60172289  0.15293043  0.62611097     0.03000
H351        H  0.55373985  0.12010130  0.66196424     0.08100
H352        H  0.61210021  0.16746918  0.60924360     0.06900
N353        N  0.61825881  0.45821028  0.83242710    -0.27500
N354        N  0.64285092  0.46426822  0.83605377    -0.35300
C355        C  0.64981509  0.98555629  0.81399876     0.00900
C356        C  0.62877605  0.99382833  0.79544188     0.06900
C357        C  0.60891577  0.47620006  0.80790257    -0.06200
H358        H  0.66919360  0.99340036  0.81073624     0.07600
H359        H  0.58958293  0.47508934  0.79846219     0.08800
Cu360      Cu  0.66820929  0.44063011  0.86592619     0.44200
Cu361      Cu  0.60036087  0.42232728  0.85856652     0.42000
Cu362      Cu  0.64878731  0.36593048  0.88667267     0.43900
N363        N  0.69380197  0.40774050  0.88276849    -0.34800
N364        N  0.68677119  0.37854700  0.88789340    -0.29100
C365        C  0.70761163  0.36092182  0.89329194    -0.05200
C366        C  0.72873244  0.38024624  0.89190782     0.07000
C367        C  0.71927878  0.40978952  0.88529487     0.00800
H368        H  0.70743637  0.33586280  0.89719463     0.08500
H369        H  0.73019641  0.43063597  0.88030461     0.07500
N370        N  0.61009020  0.36200450  0.89473703    -0.36300
N371        N  0.59228669  0.38235622  0.88624800    -0.28500
C372        C  0.56985216  0.37304026  0.89906763    -0.03700
C373        C  0.57392632  0.34555077  0.91628022     0.04900
C374        C  0.59963242  0.33948063  0.91272282     0.03000
H375        H  0.55200525  0.38541609  0.89616905     0.08100
H376        H  0.61031536  0.32063148  0.92369065     0.06900
N377        N  0.36554828  0.08482105  0.78938224    -0.27500
N378        N  0.34047709  0.08310937  0.78679565    -0.35300
C379        C  0.33425160  0.06240781  0.76192012     0.00900
C380        C  0.35632755  0.05004210  0.74806828     0.06900
C381        C  0.37595042  0.06460753  0.76621042    -0.06200
H382        H  0.31491317  0.05725477  0.75406771     0.07600
H383        H  0.39616406  0.06170759  0.76199406     0.08800
Cu384      Cu  0.31482256  0.11062563  0.81412168     0.44200
Cu385      Cu  0.38311975  0.11745132  0.82256369     0.42000
Cu386      Cu  0.33815765  0.18051057  0.85289898     0.43900
N387        N  0.29086797  0.14531151  0.83365728    -0.34800
N388        N  0.29943690  0.17274314  0.84559304    -0.29100
C389        C  0.27946599  0.19189954  0.85238837    -0.05200
C390        C  0.25735634  0.17529456  0.84494392     0.07000
C391        C  0.26528253  0.14586004  0.83322711     0.00800
H392        H  0.28091780  0.21597151  0.86212033     0.08500
H393        H  0.25337964  0.12680979  0.82351794     0.07500
N394        N  0.37646239  0.17758126  0.86597892    -0.36300
N395        N  0.39242862  0.15486298  0.85610537    -0.28500
C396        C  0.41466826  0.15906806  0.87269322    -0.03700
C397        C  0.41258354  0.18570664  0.89361074     0.04900
C398        C  0.38814966  0.19667134  0.88889135     0.03000
H399        H  0.43077863  0.14319472  0.87071008     0.08100
H400        H  0.37905827  0.21615698  0.90243965     0.06900
N401        N  0.36768410  0.48841723  0.68284729    -0.27500
N402        N  0.34398590  0.49698626  0.67635458    -0.35300
C403        C  0.33717898  0.02063839  0.69765491     0.00900
C404        C  0.35740215  0.02771707  0.71878561     0.06900
C405        C  0.37663558  0.00699189  0.70860382    -0.06200
H406        H  0.31830911  0.03088588  0.69866877     0.07600
H407        H  0.39511060  0.00437002  0.72028468     0.08800
Cu408      Cu  0.31901276  0.47362228  0.64398312     0.44200
Cu409      Cu  0.38453918  0.44894799  0.65851279     0.42000
Cu410      Cu  0.33548225  0.39564012  0.62263194     0.43900
N411        N  0.29255474  0.44157680  0.62531932    -0.34800
N412        N  0.29852953  0.41168468  0.61946614    -0.29100
C413        C  0.27719531  0.39517613  0.61284215    -0.05200
C414        C  0.25682242  0.41583324  0.61440892     0.07000
C415        C  0.26720733  0.44511305  0.62224410     0.00800
H416        H  0.27651297  0.36991598  0.60824208     0.08500
H417        H  0.25699503  0.46686488  0.62764467     0.07500
N418        N  0.37411990  0.38738559  0.61987804    -0.36300
N419        N  0.39219700  0.40657485  0.63145334    -0.28500
C420        C  0.41495750  0.39432733  0.62218848    -0.03700
C421        C  0.41092050  0.36599128  0.60409083     0.04900
C422        C  0.38472309  0.36263830  0.60336930     0.03000
H423        H  0.43295620  0.40580685  0.62746388     0.08100
H424        H  0.37389021  0.34368400  0.59138577     0.06900
C425        C  0.51043161  0.22923251  0.54630981     0.86300
C426        C  0.52765155  0.25010822  0.52535988    -0.53900
C427        C  0.51489665  0.26891532  0.00395303     0.09200
C428        C  0.48586508  0.26640963  0.00634529     0.20200
C429        C  0.49272503  0.25339292  0.56456654    -0.54600
C430        C  0.47980435  0.27277454  0.54371240     0.09300
C431        C  0.49300052  0.21190411  0.52065158    -0.54200
C432        C  0.48007753  0.23115674  0.99976362     0.09900
H433        H  0.54829673  0.24976514  0.52693695     0.14400
H434        H  0.47604695  0.28232004  0.98913640     0.00200
H435        H  0.49075036  0.25605809  0.59150017     0.14700
H436        H  0.49140952  0.18641440  0.51889846     0.14500
N437        N  0.86713429  0.21188319  0.70623119    -0.27500
N438        N  0.84206090  0.21455969  0.70741806    -0.35300
C439        C  0.83561556  0.23584284  0.73152517     0.00900
C440        C  0.85750069  0.24759990  0.74652916     0.06900
C441        C  0.87732098  0.23209942  0.72973011    -0.06200
H442        H  0.81619161  0.24149478  0.73840115     0.07600
H443        H  0.89743727  0.23413602  0.73533204     0.08800
Cu444      Cu  0.81627344  0.18713259  0.68034450     0.44200
Cu445      Cu  0.88466985  0.17798300  0.67418320     0.42000
Cu446      Cu  0.83815815  0.11927259  0.63770861     0.43900
N447        N  0.79162209  0.15328551  0.66101458    -0.34800
N448        N  0.79975394  0.12640283  0.64718685    -0.29100
C449        C  0.77961475  0.10741572  0.64093221    -0.05200
C450        C  0.75782826  0.12364607  0.65078895     0.07000
C451        C  0.76613567  0.15261930  0.66330914     0.00800
H452        H  0.78074239  0.08370916  0.63007117     0.08500
H453        H  0.75463665  0.17120564  0.67481952     0.07500
N454        N  0.87651573  0.12138653  0.62579579    -0.36300
N455        N  0.89338382  0.14179502  0.63854443    -0.28500
C456        C  0.91580697  0.13677366  0.62278452    -0.03700
C457        C  0.91270984  0.11225683  0.59913114     0.04900
C458        C  0.88761922  0.10332840  0.60163088     0.03000
H459        H  0.93274490  0.15082372  0.62712049     0.08100
H460        H  0.87785737  0.08562931  0.58616502     0.06900
N461        N  0.86678264  0.30773537  0.81409357    -0.27500
N462        N  0.84344590  0.29765912  0.81994460    -0.35300
C463        C  0.83750852  0.27445353  0.79760343     0.00900
C464        C  0.85791282  0.26917706  0.77648754     0.06900
C465        C  0.87635454  0.29055016  0.78773520    -0.06200
H466        H  0.81913236  0.26301937  0.79613081     0.07600
H467        H  0.89473321  0.29444124  0.77654220     0.08800
Cu468      Cu  0.81774228  0.31725567  0.85396506     0.44200
Cu469      Cu  0.88282407  0.34664320  0.84068466     0.42000
Cu470      Cu  0.83506378  0.38897897  0.89279978     0.43900
N471        N  0.79132461  0.34582828  0.87858026    -0.34800
N472        N  0.79766505  0.37382282  0.89145484    -0.29100
C473        C  0.77638201  0.38988331  0.89982995    -0.05200
C474        C  0.75566368  0.37079818  0.89223434     0.07000
C475        C  0.76582160  0.34295285  0.87895763     0.00800
H476        H  0.77597197  0.41414444  0.90916976     0.08500
H477        H  0.75540930  0.32329326  0.86761872     0.07500
N478        N  0.87326193  0.40064326  0.89115400    -0.36300
N479        N  0.89078079  0.38620667  0.87239113    -0.28500
C480        C  0.91314782  0.40138569  0.87743224    -0.03700
C481        C  0.90935793  0.42667360  0.90015960     0.04900
C482        C  0.88388287  0.42495625  0.90850066     0.03000
H483        H  0.93074416  0.39490818  0.86496534     0.08100
H484        H  0.87359923  0.44018624  0.92608124     0.06900
N485        N  0.11608058  0.33596999  0.66518530    -0.27500
N486        N  0.14029274  0.32792968  0.66164336    -0.35300
C487        C  0.14651509  0.30687231  0.68435702     0.00900
C488        C  0.12539770  0.30097863  0.70344475     0.06900
C489        C  0.10620474  0.31962267  0.69048693    -0.06200
H490        H  0.16563251  0.29811284  0.68814955     0.07600
H491        H  0.08720604  0.32291472  0.70037410     0.08800
Cu492      Cu  0.16669371  0.35005759  0.63280250     0.44200
Cu493      Cu  0.10003732  0.37265299  0.63822424     0.42000
Cu494      Cu  0.15022085  0.42439195  0.60582644     0.43900
N495        N  0.19379001  0.38164199  0.61834235    -0.34800
N496        N  0.18779118  0.41057834  0.61036917    -0.29100
C497        C  0.20929473  0.42727607  0.60694833    -0.05200
C498        C  0.22973719  0.40757073  0.61273940     0.07000
C499        C  0.21923314  0.37882258  0.61982867     0.00800
H500        H  0.20996884  0.45194289  0.60123092     0.08500
H501        H  0.22925350  0.35797236  0.62742306     0.07500
N502        N  0.11152404  0.43044177  0.59850080    -0.36300
N503        N  0.09321424  0.41193771  0.60902923    -0.28500
C504        C  0.07070174  0.42264093  0.59746543    -0.03700
C505        C  0.07520556  0.44911153  0.57897960     0.04900
C506        C  0.10126508  0.45321582  0.58040180     0.03000
H507        H  0.05246438  0.41200494  0.60227612     0.08100
H508        H  0.11217328  0.47104995  0.56827734     0.06900
N509        N  0.11786336  0.25053391  0.77515400    -0.27500
N510        N  0.14224476  0.25825414  0.77725711    -0.35300
C511        C  0.14780545  0.27789561  0.75296068     0.00900
C512        C  0.12606338  0.28326720  0.73450301     0.06900
C513        C  0.10723586  0.26573735  0.74935614    -0.06200
H514        H  0.16670655  0.28675432  0.74835414     0.07600
H515        H  0.08774875  0.26282973  0.74090213     0.08000
Cu516      Cu  0.16930042  0.23981241  0.80897039     0.44200
Cu517      Cu  0.10176174  0.21672218  0.80549866     0.42000
Cu518      Cu  0.15099305  0.17519346  0.85369008     0.43900
N519        N  0.19585156  0.21246735  0.83304838    -0.34800
N520        N  0.18892019  0.18685575  0.84821985    -0.29100
C521        C  0.20983006  0.17038208  0.85623468    -0.05200
C522        C  0.23097276  0.18683841  0.84619692     0.07000
C523        C  0.22144645  0.21345960  0.83160937     0.00800
H524        H  0.20962460  0.14752870  0.86726247     0.08500
H525        H  0.23217658  0.23073564  0.81839719     0.07500
N526        N  0.11224987  0.16688421  0.85628855    -0.36300
N527        N  0.09427401  0.18111241  0.83902871    -0.28500
C528        C  0.07148093  0.16915285  0.84742161    -0.03700
C529        C  0.07550504  0.14636685  0.87087583     0.04900
C530        C  0.10147657  0.14589830  0.87604302     0.03000
H531        H  0.05334260  0.17679315  0.83763023     0.08100
H532        H  0.11185605  0.13131514  0.89306707     0.06900
C533        C  0.01035379  0.06517008  0.94938595     0.86300
C534        C  0.02751081  0.04618369  0.97265738    -0.53900
C535        C  0.01476890  0.02758214  0.49408166     0.09200
C536        C  0.98578278  0.02831803  0.48932556     0.20200
C537        C  0.99422295  0.03925897  0.93090825    -0.54600
C538        C  0.98153267  0.02009548  0.95183665     0.09300
C539        C  0.99101098  0.08234634  0.97247615    -0.54200
C540        C  0.97856686  0.06333857  0.49368971     0.09900
H541        H  0.04815698  0.04677480  0.97167805     0.14400
H542        H  0.97526362  0.51289024  0.50628076     0.00200
H543        H  0.99234722  0.03570457  0.90405090     0.14700
H544        H  0.98767212  0.10757631  0.97245186     0.14500
C545        C  0.05736730  0.13028384  0.92424389    -0.26500
C546        C  0.05669578  0.12781456  0.88924201    -0.14600
C547        C  0.03963562  0.10624574  0.87332405     0.36100
C548        C  0.02451358  0.08696491  0.89295083    -0.25900
C549        C  0.02578166  0.08822453  0.92840369    -0.15200
C550        C  0.04215469  0.11147816  0.94390243     0.37200
N551        N  0.04422211  0.11695748  0.97951648    -0.89400
H552        H  0.07017994  0.14705722  0.93665429     0.18300
H553        H  0.01207631  0.07076957  0.87952080     0.18300
N554        N  0.03790453  0.10188769  0.83746841    -0.88500
H555        H  0.05127900  0.09709644  0.49087895     0.35600
H556        H  0.02664415  0.12344801  0.48961149     0.40700
H557        H  0.05091057  0.11573996  0.82510569     0.40400
H558        H  0.01972033  0.10908661  0.83018747     0.35200
C559        C  0.06205921  0.50154146  0.55974447    -0.26500
C560        C  0.05712510  0.46909561  0.56043651    -0.14600
C561        C  0.03645122  0.45641866  0.54156849     0.36100
C562        C  0.02192252  0.47631261  0.52139465    -0.25900
C563        C  0.02806416  0.50829003  0.51909590    -0.15200
C564        C  0.04764259  0.52128665  0.53959194     0.37200
N565        N  0.05280513  0.05451745  0.53986865    -0.89400
H566        H  0.07747666  0.51153498  0.57481602     0.18300
H567        H  0.00654210  0.46649835  0.50617478     0.18300
N568        N  0.03100039  0.42328950  0.54164045    -0.88500
H569        H  0.06781012  0.06031776  0.55626766     0.35600
H570        H  0.03667701  0.06626846  0.54926546     0.40700
H571        H  0.04644067  0.41132770  0.53061897     0.40400
H572        H  0.01512486  0.41789236  0.52658990     0.35200
C573        C  0.95375518  0.44239746  0.91708064    -0.26500
C574        C  0.92806824  0.45080529  0.91271867    -0.14600
C575        C  0.92047257  0.48220532  0.92084681     0.36100
C576        C  0.93832544  0.50381605  0.93437062    -0.25900
C577        C  0.96377716  0.49530072  0.93908127    -0.15200
C578        C  0.97172929  0.46423122  0.93006970     0.37200
N579        N  0.99773969  0.45408011  0.93328458    -0.89400
H580        H  0.95991279  0.41855076  0.91070426     0.18300
H581        H  0.93247469  0.02779383  0.94058656     0.18300
N582        N  0.89486748  0.49245255  0.91441273    -0.88500
H583        H  0.99821604  0.43638400  0.95074048     0.35600
H584        H  0.00944731  0.47220048  0.94270003     0.40700
H585        H  0.89200495  0.49104842  0.88845346     0.40400
H586        H  0.89241979  0.51610968  0.92197865     0.35200
C587        C  0.92493638  0.10686239  0.53954168    -0.26500
C588        C  0.93070497  0.10077604  0.57304617    -0.14600
C589        C  0.95228891  0.08215514  0.58035988     0.36100
C590        C  0.96721163  0.06975503  0.55389380    -0.25900
C591        C  0.96146161  0.07595810  0.52044879    -0.15200
C592        C  0.94019054  0.09484271  0.51314968     0.37200
N593        N  0.93396548  0.10134032  0.97900422    -0.89400
H594        H  0.90830204  0.12092036  0.53397985     0.18300
H595        H  0.98366637  0.05540458  0.55954106     0.18300
N596        N  0.95923259  0.07447854  0.61396102    -0.88500
H597        H  0.91783211  0.11575333  0.97797705     0.35600
H598        H  0.92914944  0.07998004  0.96673669     0.40700
H599        H  0.94662992  0.08421739  0.63163506     0.40400
H600        H  0.97703563  0.08453814  0.61918319     0.35200
C601        C  0.47119942  0.31838215  0.58326349    -0.26500
C602        C  0.46255196  0.29824105  0.55683238    -0.14600
C603        C  0.43716828  0.30134361  0.54547415     0.36100
C604        C  0.42129718  0.32419192  0.56056234    -0.25900
C605        C  0.42962148  0.34387539  0.58763421    -0.15200
C606        C  0.45499528  0.34080411  0.59911413     0.37200
N607        N  0.46405857  0.35944662  0.62751996    -0.89400
H608        H  0.49059308  0.31598996  0.59221966     0.18300
H609        H  0.40203166  0.32610332  0.55109481     0.18300
N610        N  0.42628213  0.28050441  0.52021296    -0.88500
H611        H  0.48320014  0.35453125  0.63240096     0.35600
H612        H  0.45388000  0.35263395  0.64846893     0.40700
H613        H  0.42916496  0.25728499  0.02707149     0.40400
H614        H  0.43504064  0.28397250  0.99731117     0.35200
C615        C  0.42884694  0.18417174  0.95180868    -0.26500
C616        C  0.43051654  0.19676260  0.92002810    -0.14600
C617        C  0.44817858  0.22081191  0.91438277     0.36100
C618        C  0.46406237  0.23179727  0.94083668    -0.25900
C619        C  0.46260001  0.21909106  0.97273257    -0.15200
C620        C  0.44455878  0.19520930  0.97835674     0.37200
N621        N  0.44185400  0.18268633  0.01107913    -0.89400
H622        H  0.41488674  0.16602296  0.95602006     0.18300
H623        H  0.47788523  0.25004106  0.93641202     0.18300
N624        N  0.44967462  0.23417086  0.88194348    -0.88500
H625        H  0.42778310  0.16532193  0.01088327     0.35600
H626        H  0.43555765  0.20093434  0.52734382     0.40700
H627        H  0.45583536  0.21641239  0.86496257     0.40400
H628        H  0.46345930  0.25188773  0.88200744     0.35200
C629        C  0.56042815  0.29374338  0.93653172    -0.26500
C630        C  0.55609627  0.32638972  0.93597979    -0.14600
C631        C  0.53652355  0.33984885  0.95617048     0.36100
C632        C  0.52256107  0.32049467  0.97739098    -0.25900
C633        C  0.52812206  0.28825212  0.97919474    -0.15200
C634        C  0.54660326  0.27457003  0.95766865     0.37200
N635        N  0.55124574  0.24117352  0.95736604    -0.89400
H636        H  0.57492864  0.28308550  0.92052824     0.18300
H637        H  0.50804804  0.33081738  0.99363130     0.18300
N638        N  0.53155761  0.37312669  0.95617291    -0.88500
H639        H  0.56547805  0.23480669  0.94017089     0.35600
H640        H  0.53458537  0.22988497  0.94897933     0.40700
H641        H  0.54761976  0.38467362  0.96612464     0.40400
H642        H  0.51642946  0.37909760  0.97213918     0.35200
C643        C  0.52010985  0.20243206  0.60210526    -0.26500
C644        C  0.52565158  0.20624147  0.56785314    -0.14600
C645        C  0.54583920  0.18793700  0.55354306     0.36100
C646        C  0.56144906  0.16991648  0.57415596    -0.25900
C647        C  0.55680105  0.16790901  0.60852611    -0.15200
C648        C  0.53543944  0.18353306  0.62247512     0.37200
N649        N  0.52976051  0.18091879  0.65743691    -0.89400
H650        H  0.50381641  0.21391529  0.61348030     0.18300
H651        H  0.57746160  0.15715971  0.56321349     0.18300
N652        N  0.55097827  0.18827223  0.51818565    -0.88500
H653        H  0.51330020  0.19362844  0.66380573     0.35600
H654        H  0.54467896  0.19144155  0.67120991     0.40700
H655        H  0.53590131  0.17697470  0.00553852     0.40400
H656        H  0.56729242  0.17512801  0.01215723     0.35200
N657        N  0.62070679  0.54830642  0.22683637    -0.27500
N658        N  0.64517765  0.54089660  0.22455199    -0.35300
C659        C  0.65109131  0.52033765  0.24801110     0.00900
C660        C  0.62948587  0.51391053  0.26601045     0.06900
C661        C  0.61041771  0.53190704  0.25182953    -0.06200
H662        H  0.67003949  0.51112597  0.25202404     0.07600
H663        H  0.59084431  0.53390604  0.25994941     0.08800
Cu664      Cu  0.67162907  0.55966077  0.19250991     0.44200
Cu665      Cu  0.60345156  0.58253369  0.19722126     0.42000
Cu666      Cu  0.65148766  0.62583003  0.15109256     0.43900
N667        N  0.69705120  0.58703760  0.16691969    -0.34800
N668        N  0.68946054  0.61319177  0.15313921    -0.29100
C669        C  0.70993933  0.62936716  0.14351812    -0.05200
C670        C  0.73148124  0.61221575  0.15104958     0.07000
C671        C  0.72265753  0.58544933  0.16586042     0.00800
H672        H  0.70925611  0.65253345  0.13321831     0.08500
H673        H  0.73402762  0.56769170  0.17765870     0.07500
N674        N  0.61267100  0.63311975  0.14722259    -0.36300
N675        N  0.59481725  0.61822992  0.16366096    -0.28500
C676        C  0.57182707  0.62878616  0.15342541    -0.03700
C677        C  0.57563180  0.65098536  0.12921589     0.04900
C678        C  0.60172306  0.65293058  0.12611114     0.03000
H679        H  0.55373996  0.62010172  0.16196459     0.08100
H680        H  0.61210039  0.66746922  0.10924367     0.06900
N681        N  0.61825842  0.95821035  0.33242716    -0.27500
N682        N  0.64285050  0.96426840  0.33605403    -0.35300
C683        C  0.64981474  0.48555652  0.31399908     0.00900
C684        C  0.62877577  0.49382849  0.29544206     0.06900
C685        C  0.60891543  0.97620005  0.30790252    -0.06200
H686        H  0.66919324  0.49340071  0.31073673     0.07600
H687        H  0.58958263  0.97508923  0.29846197     0.08800
Cu688      Cu  0.66820874  0.94063028  0.36592670     0.44200
Cu689      Cu  0.60036050  0.92232729  0.35856649     0.42000
Cu690      Cu  0.64878692  0.86593060  0.38667275     0.43900
N691        N  0.69380153  0.90774068  0.38276878    -0.34800
N692        N  0.68677082  0.87854714  0.38789363    -0.29100
C693        C  0.70761132  0.86092201  0.39329200    -0.05200
C694        C  0.72873209  0.88024647  0.39190780     0.07000
C695        C  0.71927835  0.90978976  0.38529498     0.00800
H696        H  0.70743612  0.83586296  0.39719458     0.08500
H697        H  0.73019589  0.93063629  0.38030469     0.07500
N698        N  0.61008977  0.86200459  0.39473707    -0.36300
N699        N  0.59228626  0.88235629  0.38624798    -0.28500
C700        C  0.56985171  0.87304038  0.39906756    -0.03700
C701        C  0.57392585  0.84555087  0.41628017     0.04900
C702        C  0.59963196  0.83948074  0.41272287     0.03000
H703        H  0.55200481  0.88541623  0.39616890     0.08100
H704        H  0.61031487  0.82063157  0.42369071     0.06900
N705        N  0.36554849  0.58482100  0.28938214    -0.27500
N706        N  0.34047728  0.58310904  0.28679588    -0.35300
C707        C  0.33425177  0.56240738  0.26192047     0.00900
C708        C  0.35632770  0.55004191  0.24806834     0.06900
C709        C  0.37595058  0.56460755  0.26621022    -0.06200
H710        H  0.31491333  0.55725416  0.25406829     0.07600
H711        H  0.39616420  0.56170782  0.26199358     0.08800
Cu712      Cu  0.31482278  0.61062528  0.31412195     0.44200
Cu713      Cu  0.38311995  0.61745162  0.32256318     0.42000
Cu714      Cu  0.33815776  0.68051069  0.35289851     0.43900
N715        N  0.29086816  0.64531125  0.33365726    -0.34800
N716        N  0.29943705  0.67274303  0.34559266    -0.29100
C717        C  0.27946611  0.69189940  0.35238787    -0.05200
C718        C  0.25735651  0.67529425  0.34494371     0.07000
C719        C  0.26528273  0.64585967  0.33322718     0.00800
H720        H  0.28091788  0.71597144  0.36211960     0.08500
H721        H  0.25337986  0.62680930  0.32351823     0.07500
N722        N  0.37646255  0.67758153  0.36597833    -0.36300
N723        N  0.39242883  0.65486332  0.35610475    -0.28500
C724        C  0.41466845  0.65906840  0.37269266    -0.03700
C725        C  0.41258367  0.68570695  0.39361022     0.04900
C726        C  0.38814976  0.69667159  0.38889084     0.03000
H727        H  0.43077883  0.64319504  0.37070959     0.08100
H728        H  0.37905831  0.71615713  0.40243922     0.06900
N729        N  0.36768421  0.98841729  0.18284706    -0.27500
N730        N  0.34398597  0.99698625  0.17635453    -0.35300
C731        C  0.33717907  0.52063833  0.19765496     0.00900
C732        C  0.35740226  0.52771700  0.21878560     0.06900
C733        C  0.37663573  0.50699194  0.20860364    -0.06200
H734        H  0.31830920  0.53088584  0.19866889     0.07600
H735        H  0.39511082  0.50437018  0.22028437     0.08800
Cu736      Cu  0.31901280  0.97362244  0.14398295     0.44200
Cu737      Cu  0.38453921  0.94894814  0.15851235     0.42000
Cu738      Cu  0.33548233  0.89564006  0.12263195     0.43900
N739        N  0.29255485  0.94157691  0.12531910    -0.34800
N740        N  0.29852967  0.91168480  0.11946592    -0.29100
C741        C  0.27719548  0.89517625  0.11284184    -0.05200
C742        C  0.25682257  0.91583332  0.11440864     0.07000
C743        C  0.26720744  0.94511314  0.12224385     0.00800
H744        H  0.27651317  0.86991611  0.10824175     0.08500
H745        H  0.25699511  0.96686495  0.12764439     0.07500
N746        N  0.37412001  0.88738569  0.11987774    -0.36300
N747        N  0.39219711  0.90657501  0.13145294    -0.28500
C748        C  0.41495762  0.89432752  0.12218807    -0.03700
C749        C  0.41092063  0.86599144  0.10409052     0.04900
C750        C  0.38472322  0.86263841  0.10336899     0.03000
H751        H  0.43295633  0.90580706  0.12746342     0.08100
H752        H  0.37389036  0.84368407  0.09138550     0.06900
C753        C  0.51043177  0.72923265  0.04630991     0.86300
C754        C  0.52765176  0.75010833  0.02536001    -0.53900
C755        C  0.51489638  0.76891526  0.50395300     0.09200
C756        C  0.48586483  0.76640956  0.50634535     0.20200
C757        C  0.49272515  0.75339306  0.06456656    -0.54600
C758        C  0.47980453  0.77277467  0.04371233     0.09300
C759        C  0.49300074  0.71190421  0.02065164    -0.54200
C760        C  0.48007732  0.73115668  0.49976359     0.09900
H761        H  0.54829692  0.74976524  0.02693713     0.14400
H762        H  0.47604667  0.78232000  0.48913654     0.00200
H763        H  0.49075037  0.75605819  0.09150019     0.14700
H764        H  0.49140970  0.68641451  0.01889858     0.14500
N765        N  0.86713420  0.71188351  0.20623108    -0.27500
N766        N  0.84206080  0.71456002  0.20741784    -0.35300
C767        C  0.83561543  0.73584325  0.23152486     0.00900
C768        C  0.85750054  0.74760037  0.24652888     0.06900
C769        C  0.87732086  0.73209982  0.22972995    -0.06200
H770        H  0.81619146  0.74149521  0.23840073     0.07600
H771        H  0.89743715  0.73413644  0.23533191     0.08800
Cu772      Cu  0.81627332  0.68713299  0.18034409     0.44200
Cu773      Cu  0.88466988  0.67798334  0.17418317     0.42000
Cu774      Cu  0.83815832  0.61927275  0.13770888     0.43900
N775        N  0.79162212  0.65328563  0.16101436    -0.34800
N776        N  0.79975405  0.62640286  0.14718694    -0.29100
C777        C  0.77961491  0.60741562  0.14093245    -0.05200
C778        C  0.75782838  0.62364598  0.15078900     0.07000
C779        C  0.76613570  0.65261935  0.16330889     0.00800
H780        H  0.78074259  0.58370899  0.13007161     0.08500
H781        H  0.75463663  0.67120575  0.17481904     0.07500
N782        N  0.87651587  0.62138685  0.12579580    -0.36300
N783        N  0.89338395  0.64179544  0.13854429    -0.28500
C784        C  0.91580709  0.63677411  0.12278430    -0.03700
C785        C  0.91270993  0.61225716  0.09913105     0.04900
C786        C  0.88761934  0.60332865  0.10163094     0.03000
H787        H  0.93274503  0.65082418  0.12712017     0.08100
H788        H  0.87785750  0.58562939  0.08616526     0.06900
N789        N  0.86678247  0.80773560  0.31409355    -0.27500
N790        N  0.84344567  0.79765945  0.31994441    -0.35300
C791        C  0.83750826  0.77445399  0.29760310     0.00900
C792        C  0.85791261  0.76917754  0.27648726     0.06900
C793        C  0.87635439  0.79055049  0.28773514    -0.06200
H794        H  0.81913208  0.76301990  0.29613035     0.07600
H795        H  0.89473310  0.79444157  0.27654226     0.08800
Cu796      Cu  0.81774209  0.81725621  0.35396479     0.44200
Cu797      Cu  0.88282387  0.84664336  0.34068472     0.42000
Cu798      Cu  0.83506345  0.88897936  0.39279959     0.43900
N799        N  0.79132431  0.84582871  0.37857991    -0.34800
N800        N  0.79766470  0.87382321  0.39145465    -0.29100
C801        C  0.77638165  0.88988358  0.39982995    -0.05200
C802        C  0.75566335  0.87079842  0.39223420     0.07000
C803        C  0.76582131  0.84295317  0.37895729     0.00800
H804        H  0.77597157  0.91414465  0.40917000     0.08500
H805        H  0.75540907  0.82329353  0.36761832     0.07500
N806        N  0.87326168  0.90064346  0.39115403    -0.36300
N807        N  0.89078053  0.88620683  0.37239118    -0.28500
C808        C  0.91314758  0.90138580  0.37743231    -0.03700
C809        C  0.90935772  0.92667373  0.40015965     0.04900
C810        C  0.88388265  0.92495642  0.40850070     0.03000
H811        H  0.93074392  0.89490821  0.36496545     0.08100
H812        H  0.87359904  0.94018646  0.42608127     0.06900
N813        N  0.11608088  0.83596988  0.16518521    -0.27500
N814        N  0.14029308  0.82792971  0.16164337    -0.35300
C815        C  0.14651547  0.80687243  0.18435711     0.00900
C816        C  0.12539804  0.80097871  0.20344480     0.06900
C817        C  0.10620503  0.81962257  0.19048685    -0.06200
H818        H  0.16563291  0.79811304  0.18814969     0.07600
H819        H  0.08720627  0.82291447  0.20037389     0.08800
Cu820      Cu  0.16669404  0.85005766  0.13280256     0.44200
Cu821      Cu  0.10003750  0.87265269  0.13822403     0.42000
Cu822      Cu  0.15022092  0.92439163  0.10582598     0.43900
N823        N  0.19379024  0.88164196  0.11834209    -0.34800
N824        N  0.18779134  0.91057823  0.11036873    -0.29100
C825        C  0.20929487  0.92727601  0.10694789    -0.05200
C826        C  0.22973736  0.90757075  0.11273912     0.07000
C827        C  0.21923337  0.87882261  0.11982849     0.00800
H828        H  0.20996895  0.95194280  0.10123037     0.08500
H829        H  0.22925375  0.85797246  0.12742303     0.07500
N830        N  0.11152407  0.93044156  0.09850069    -0.36300
N831        N  0.09321430  0.91193746  0.10902915    -0.28500
C832        C  0.07070175  0.92264072  0.09746552    -0.03700
C833        C  0.07520551  0.94911142  0.07897982     0.04900
C834        C  0.10126503  0.95321569  0.08040187     0.03000
H835        H  0.05246443  0.91200466  0.10227623     0.08100
H836        H  0.11217319  0.97104985  0.06827739     0.06900
N837        N  0.11786363  0.75053377  0.27515386    -0.27500
N838        N  0.14224503  0.75825404  0.27725702    -0.35300
C839        C  0.14780573  0.77789566  0.25296074     0.00900
C840        C  0.12606368  0.78326729  0.23450306     0.06900
C841        C  0.10723615  0.76573734  0.24935605    -0.06200
H842        H  0.16670684  0.78675440  0.24835426     0.07600
H843        H  0.08774906  0.76282974  0.24090193     0.08000
Cu844      Cu  0.16930063  0.73981206  0.30897019     0.44200
Cu845      Cu  0.10176213  0.71672192  0.30549862     0.42000
Cu846      Cu  0.15099326  0.67519311  0.35369011     0.43900
N847        N  0.19585172  0.71246689  0.33304813    -0.34800
N848        N  0.18892038  0.68685528  0.34821963    -0.29100
C849        C  0.20983026  0.67038166  0.35623449    -0.05200
C850        C  0.23097293  0.68683802  0.34619672     0.07000
C851        C  0.22144659  0.71345919  0.33160916     0.00800
H852        H  0.20962485  0.64752830  0.36726234     0.08500
H853        H  0.23217671  0.73073525  0.31839700     0.07500
N854        N  0.11225010  0.66688387  0.35628853    -0.36300
N855        N  0.09427430  0.68111219  0.33902870    -0.28500
C856        C  0.07148118  0.66915277  0.34742157    -0.03700
C857        C  0.07550518  0.64636672  0.37087576     0.04900
C858        C  0.10147672  0.64589796  0.37604294     0.03000
H859        H  0.05334288  0.67679317  0.33763018     0.08100
H860        H  0.11185612  0.63131467  0.39306695     0.06900
C861        C  0.01035375  0.56517020  0.44938585     0.86300
C862        C  0.02751077  0.54618375  0.47265721    -0.53900
C863        C  0.01476893  0.52758213  0.99408183     0.09200
C864        C  0.98578281  0.52831799  0.98932569     0.20200
C865        C  0.99422287  0.53925912  0.43090812    -0.54600
C866        C  0.98153259  0.52009560  0.45183650     0.09300
C867        C  0.99101097  0.58234642  0.47247614    -0.54200
C868        C  0.97856688  0.56333853  0.99368972     0.09900
H869        H  0.04815695  0.54677488  0.47167793     0.14400
H870        H  0.97526365  0.01289022  0.00628092     0.00200
H871        H  0.99234714  0.53570472  0.40405077     0.14700
H872        H  0.98767207  0.60757639  0.47245193     0.14500
C873        C  0.05736728  0.63028396  0.42424379    -0.26500
C874        C  0.05669580  0.62781460  0.38924191    -0.14600
C875        C  0.03963562  0.60624581  0.37332395     0.36100
C876        C  0.02451355  0.58696502  0.39295074    -0.25900
C877        C  0.02578162  0.58822467  0.42840360    -0.15200
C878        C  0.04215465  0.61147830  0.44390233     0.37200
N879        N  0.04422200  0.61695768  0.47951639    -0.89400
H880        H  0.07017992  0.64705733  0.43665419     0.18300
H881        H  0.01207629  0.57076967  0.37952071     0.18300
N882        N  0.03790456  0.60188768  0.33746830    -0.88500
H883        H  0.05127906  0.59709639  0.99087910     0.35600
H884        H  0.02664418  0.62344781  0.98961153     0.40700
H885        H  0.05091067  0.61573985  0.32510555     0.40400
H886        H  0.01972039  0.60908666  0.33018727     0.35200
C887        C  0.06205921  0.00154138  0.05974472    -0.26500
C888        C  0.05712503  0.96909555  0.06043681    -0.14600
C889        C  0.03645115  0.95641863  0.04156878     0.36100
C890        C  0.02192247  0.97631260  0.02139492    -0.25900
C891        C  0.02806418  0.00829000  0.01909613    -0.15200
C892        C  0.04764267  0.02128657  0.03959210     0.37200
N893        N  0.05280519  0.55451744  0.03986871    -0.89400
H894        H  0.07747669  0.01153486  0.07481624     0.18300
H895        H  0.00654204  0.96649835  0.00617507     0.18300
N896        N  0.03100024  0.92328949  0.04164080    -0.88500
H897        H  0.06781025  0.56031778  0.05626765     0.35600
H898        H  0.03667710  0.56626845  0.04926551     0.40700
H899        H  0.04644050  0.91132759  0.03061934     0.40400
H900        H  0.01512474  0.91789238  0.02659024     0.35200
C901        C  0.95375500  0.94239753  0.41708068    -0.26500
C902        C  0.92806807  0.95080540  0.41271872    -0.14600
C903        C  0.92047244  0.98220545  0.42084685     0.36100
C904        C  0.93832533  0.00381618  0.43437062    -0.25900
C905        C  0.96377705  0.99530084  0.43908121    -0.15200
C906        C  0.97172914  0.96423131  0.43006968     0.37200
N907        N  0.99773955  0.95408021  0.43328444    -0.89400
H908        H  0.95991261  0.91855082  0.41070429     0.18300
H909        H  0.93247458  0.52779393  0.44058648     0.18300
N910        N  0.89486737  0.99245274  0.41441274    -0.88500
H911        H  0.99821596  0.93638411  0.45074037     0.35600
H912        H  0.00944719  0.97220059  0.44269977     0.40700
H913        H  0.89200485  0.99104853  0.38845347     0.40400
H914        H  0.89241974  0.01610992  0.42197856     0.35200
C915        C  0.92493637  0.60686244  0.03954159    -0.26500
C916        C  0.93070501  0.60077621  0.07304610    -0.14600
C917        C  0.95228896  0.58215534  0.08035987     0.36100
C918        C  0.96721168  0.56975516  0.05389382    -0.25900
C919        C  0.96146165  0.57595817  0.02044879    -0.15200
C920        C  0.94019056  0.59484275  0.01314963     0.37200
N921        N  0.93396546  0.60134043  0.47900429    -0.89400
H922        H  0.90830198  0.62092032  0.03397974     0.18300
H923        H  0.98366641  0.55540470  0.05954110     0.18300
N924        N  0.95923261  0.57447877  0.11396104    -0.88500
H925        H  0.91783211  0.61575345  0.47797717     0.35600
H926        H  0.92914943  0.57998018  0.46673663     0.40700
H927        H  0.94662991  0.58421762  0.13163505     0.40400
H928        H  0.97703566  0.58453835  0.11918326     0.35200
C929        C  0.47119956  0.81838235  0.08326332    -0.26500
C930        C  0.46255214  0.79824125  0.05683219    -0.14600
C931        C  0.43716851  0.80134386  0.04547380     0.36100
C932        C  0.42129737  0.82419215  0.06056198    -0.25900
C933        C  0.42962162  0.84387557  0.08763392    -0.15200
C934        C  0.45499541  0.84080432  0.09911390     0.37200
N935        N  0.46405863  0.85944677  0.12751982    -0.89400
H936        H  0.49059318  0.81599012  0.09221959     0.18300
H937        H  0.40203187  0.82610359  0.05109435     0.18300
N938        N  0.42628244  0.78050475  0.02021247    -0.88500
H939        H  0.48320022  0.85453143  0.13240088     0.35600
H940        H  0.45387998  0.85263409  0.14846869     0.40700
H941        H  0.42916475  0.75728471  0.52707195     0.40400
H942        H  0.43504033  0.78397218  0.49731161     0.35200
C943        C  0.42884692  0.68417184  0.45180820    -0.26500
C944        C  0.43051659  0.69676285  0.42002771    -0.14600
C945        C  0.44817861  0.72081226  0.41438260     0.36100
C946        C  0.46406236  0.73179749  0.44083661    -0.25900
C947        C  0.46259990  0.71909112  0.47273241    -0.15200
C948        C  0.44455864  0.69520935  0.47835639     0.37200
N949        N  0.44185379  0.68268624  0.51107870    -0.89400
H950        H  0.41488674  0.66602298  0.45601942     0.18300
H951        H  0.47788523  0.75004131  0.43641209     0.18300
N952        N  0.44967464  0.73417147  0.38194345    -0.88500
H953        H  0.42778295  0.66532172  0.51088265     0.35600
H954        H  0.43555787  0.70093464  0.02734421     0.40700
H955        H  0.45583544  0.71641315  0.36496241     0.40400
H956        H  0.46345926  0.75188842  0.38200760     0.35200
C957        C  0.56042761  0.79374336  0.43653141    -0.26500
C958        C  0.55609577  0.82638973  0.43597961    -0.14600
C959        C  0.53652315  0.83984885  0.45617044     0.36100
C960        C  0.52256073  0.82049465  0.47739100    -0.25900
C961        C  0.52812169  0.78825207  0.47919463    -0.15200
C962        C  0.54660275  0.77456998  0.45766835     0.37200
N963        N  0.55124513  0.74117344  0.45736560    -0.89400
H964        H  0.57492806  0.78308549  0.42052786     0.18300
H965        H  0.50804780  0.83081734  0.49363147     0.18300
N966        N  0.53155725  0.87312671  0.45617297    -0.88500
H967        H  0.56547735  0.73480660  0.44017037     0.35600
H968        H  0.53458470  0.72988496  0.44897892     0.40700
H969        H  0.54761946  0.88467361  0.46612456     0.40400
H970        H  0.51642918  0.87909763  0.47213937     0.35200
C971        C  0.52010993  0.70243221  0.10210541    -0.26500
C972        C  0.52565171  0.70624165  0.06785330    -0.14600
C973        C  0.54583937  0.68793721  0.05354327     0.36100
C974        C  0.56144927  0.66991679  0.07415623    -0.25900
C975        C  0.55680122  0.66790933  0.10852637    -0.15200
C976        C  0.53543952  0.68353323  0.12247530     0.37200
N977        N  0.52976049  0.68091880  0.15743705    -0.89400
H978        H  0.50381645  0.71391539  0.11348039     0.18300
H979        H  0.57746183  0.65716004  0.06321380     0.18300
N980        N  0.55097846  0.68827239  0.01818587    -0.88500
H981        H  0.51330013  0.69362832  0.16380587     0.35600
H982        H  0.54467888  0.69144161  0.17121018     0.40700
H983        H  0.53590112  0.67697462  0.50553829     0.40400
H984        H  0.56729224  0.67512793  0.51215694     0.35200
N985        N  0.62070682  0.54830619  0.72683612    -0.27500
N986        N  0.64517770  0.54089647  0.72455171    -0.35300
C987        C  0.65109145  0.52033755  0.74801082     0.00900
C988        C  0.62948605  0.51391037  0.76601025     0.06900
C989        C  0.61041783  0.53190678  0.75182932    -0.06200
H990        H  0.67003966  0.51112593  0.75202368     0.07600
H991        H  0.59084444  0.53390567  0.75994926     0.08800
Cu992      Cu  0.67162908  0.55966074  0.69250966     0.44200
Cu993      Cu  0.60345147  0.58253342  0.69722101     0.42000
Cu994      Cu  0.65148755  0.62583005  0.65109251     0.43900
N995        N  0.69705113  0.58703763  0.66691944    -0.34800
N996        N  0.68946044  0.61319186  0.65313910    -0.29100
C997        C  0.70993922  0.62936732  0.64351811    -0.05200
C998        C  0.73148113  0.61221588  0.65104951     0.07000
C999        C  0.72265744  0.58544938  0.66586020     0.00800
H1000       H  0.70925598  0.65253365  0.63321840     0.08500
H1001       H  0.73402754  0.56769172  0.67765843     0.07500
N1002       N  0.61267087  0.63311955  0.64722239    -0.36300
N1003       N  0.59481714  0.61822961  0.66366069    -0.28500
C1004       C  0.57182694  0.62878576  0.65342509    -0.03700
C1005       C  0.57563164  0.65098501  0.62921561     0.04900
C1006       C  0.60172290  0.65293037  0.62611096     0.03000
H1007       H  0.55373985  0.62010125  0.66196425     0.08100
H1008       H  0.61210021  0.66746915  0.60924361     0.06900
N1009       N  0.61825888  0.95821033  0.83242714    -0.27500
N1010       N  0.64285098  0.96426829  0.83605380    -0.35300
C1011       C  0.64981503  0.48555627  0.81399879     0.00900
C1012       C  0.62877602  0.49382835  0.79544190     0.06900
C1013       C  0.60891582  0.97620005  0.80790256    -0.06200
H1014       H  0.66919354  0.49340037  0.81073634     0.07600
H1015       H  0.58958298  0.97508930  0.79846216     0.08800
Cu1016     Cu  0.66820935  0.94063007  0.86592617     0.44200
Cu1017     Cu  0.60036096  0.92232727  0.85856649     0.42000
Cu1018     Cu  0.64878731  0.86593055  0.88667248     0.43900
N1019       N  0.69380200  0.90774048  0.88276849    -0.34800
N1020       N  0.68677122  0.87854697  0.88789338    -0.29100
C1021       C  0.70761167  0.86092181  0.89329193    -0.05200
C1022       C  0.72873247  0.88024624  0.89190782     0.07000
C1023       C  0.71927880  0.90978952  0.88529487     0.00800
H1024       H  0.70743641  0.83586277  0.89719460     0.08500
H1025       H  0.73019638  0.93063601  0.88030459     0.07500
N1026       N  0.61009019  0.86200448  0.89473696    -0.36300
N1027       N  0.59228670  0.88235623  0.88624795    -0.28500
C1028       C  0.56985215  0.87304034  0.89906758    -0.03700
C1029       C  0.57392627  0.84555081  0.91628013     0.04900
C1030       C  0.59963237  0.83948063  0.91272276     0.03000
H1031       H  0.55200528  0.88541624  0.89616902     0.08100
H1032       H  0.61031526  0.82063146  0.92369063     0.06900
N1033       N  0.36554833  0.58482103  0.78938226    -0.27500
N1034       N  0.34047712  0.58310933  0.78679569    -0.35300
C1035       C  0.33425164  0.56240778  0.76192016     0.00900
C1036       C  0.35632757  0.55004206  0.74806831     0.06900
C1037       C  0.37595044  0.56460750  0.76621043    -0.06200
H1038       H  0.31491322  0.55725476  0.75406771     0.07600
H1039       H  0.39616407  0.56170756  0.76199399     0.08800
Cu1040     Cu  0.31482253  0.61062557  0.81412166     0.44200
Cu1041     Cu  0.38311982  0.61745141  0.82256364     0.42000
Cu1042     Cu  0.33815766  0.68051054  0.85289902     0.43900
N1043       N  0.29086801  0.64531156  0.83365725    -0.34800
N1044       N  0.29943692  0.67274320  0.84559301    -0.29100
C1045       C  0.27946599  0.69189957  0.85238838    -0.05200
C1046       C  0.25735637  0.67529455  0.84494392     0.07000
C1047       C  0.26528259  0.64586004  0.83322711     0.00800
H1048       H  0.28091776  0.71597154  0.86212038     0.08500
H1049       H  0.25337974  0.62680975  0.82351796     0.07500
N1050       N  0.37646241  0.67758123  0.86597900    -0.36300
N1051       N  0.39242869  0.65486303  0.85610539    -0.28500
C1052       C  0.41466834  0.65906816  0.87269320    -0.03700
C1053       C  0.41258357  0.68570670  0.89361076     0.04900
C1054       C  0.38814965  0.69667132  0.88889144     0.03000
H1055       H  0.43077876  0.64319487  0.87071003     0.08100
H1056       H  0.37905823  0.71615691  0.90243979     0.06900
N1057       N  0.36768406  0.98841718  0.68284731    -0.27500
N1058       N  0.34398587  0.99698621  0.67635460    -0.35300
C1059       C  0.33717898  0.52063841  0.69765491     0.00900
C1060       C  0.35740214  0.52771708  0.71878563     0.06900
C1061       C  0.37663558  0.50699194  0.70860381    -0.06200
H1062       H  0.31830910  0.53088589  0.69866876     0.07600
H1063       H  0.39511061  0.50437012  0.72028466     0.08800
Cu1064     Cu  0.31901269  0.97362224  0.64398315     0.44200
Cu1065     Cu  0.38453910  0.94894794  0.65851280     0.42000
Cu1066     Cu  0.33548219  0.89564005  0.62263194     0.43900
N1067       N  0.29255470  0.94157675  0.62531932    -0.34800
N1068       N  0.29852951  0.91168464  0.61946609    -0.29100
C1069       C  0.27719532  0.89517609  0.61284204    -0.05200
C1070       C  0.25682242  0.91583320  0.61440887     0.07000
C1071       C  0.26720730  0.94511301  0.62224411     0.00800
H1072       H  0.27651301  0.86991594  0.60824190     0.08500
H1073       H  0.25699500  0.96686484  0.62764470     0.07500
N1074       N  0.37411983  0.88738557  0.61987804    -0.36300
N1075       N  0.39219694  0.90657481  0.63145337    -0.28500
C1076       C  0.41495744  0.89432726  0.62218853    -0.03700
C1077       C  0.41092043  0.86599121  0.60409090     0.04900
C1078       C  0.38472300  0.86263826  0.60336930     0.03000
H1079       H  0.43295615  0.90580680  0.62746389     0.08100
H1080       H  0.37389009  0.84368402  0.59138570     0.06900
C1081       C  0.51043156  0.72923246  0.54630977     0.86300
C1082       C  0.52765150  0.75010816  0.52535981    -0.53900
C1083       C  0.51489671  0.76891534  0.00395306     0.09200
C1084       C  0.48586515  0.76640966  0.00634529     0.20200
C1085       C  0.49272499  0.75339286  0.56456652    -0.54600
C1086       C  0.47980430  0.77277449  0.54371241     0.09300
C1087       C  0.49300048  0.71190407  0.52065157    -0.54200
C1088       C  0.48007759  0.73115677  0.99976360     0.09900
H1089       H  0.54829667  0.74976501  0.52693676     0.14400
H1090       H  0.47604705  0.78232009  0.98913639     0.00200
H1091       H  0.49075031  0.75605799  0.59150015     0.14700
H1092       H  0.49140948  0.68641437  0.51889844     0.14500
N1093       N  0.86713424  0.71188320  0.70623120    -0.27500
N1094       N  0.84206085  0.71455975  0.70741805    -0.35300
C1095       C  0.83561553  0.73584288  0.73152519     0.00900
C1096       C  0.85750069  0.74759989  0.74652918     0.06900
C1097       C  0.87732097  0.73209938  0.72973013    -0.06200
H1098       H  0.81619158  0.74149484  0.73840115     0.07600
H1099       H  0.89743727  0.73413594  0.73533204     0.08800
Cu1100     Cu  0.81627334  0.68713273  0.68034447     0.44200
Cu1101     Cu  0.88466980  0.67798307  0.67418313     0.42000
Cu1102     Cu  0.83815816  0.61927255  0.63770863     0.43900
N1103       N  0.79162207  0.65328555  0.66101454    -0.34800
N1104       N  0.79975394  0.62640285  0.64718686    -0.29100
C1105       C  0.77961475  0.60741573  0.64093224    -0.05200
C1106       C  0.75782826  0.62364610  0.65078896     0.07000
C1107       C  0.76613565  0.65261934  0.66330911     0.00800
H1108       H  0.78074238  0.58370917  0.63007122     0.08500
H1109       H  0.75463663  0.67120568  0.67481946     0.07500
N1110       N  0.87651574  0.62138656  0.62579577    -0.36300
N1111       N  0.89338384  0.64179504  0.63854441    -0.28500
C1112       C  0.91580700  0.63677366  0.62278450    -0.03700
C1113       C  0.91270983  0.61225683  0.59913112     0.04900
C1114       C  0.88761921  0.60332839  0.60163087     0.03000
H1115       H  0.93274496  0.65082370  0.62712041     0.08100
H1116       H  0.87785734  0.58562925  0.58616506     0.06900
N1117       N  0.86678274  0.80773529  0.81409366    -0.27500
N1118       N  0.84344598  0.79765905  0.81994467    -0.35300
C1119       C  0.83750858  0.77445352  0.79760345     0.00900
C1120       C  0.85791286  0.76917709  0.77648753     0.06900
C1121       C  0.87635461  0.79055014  0.78773524    -0.06200
H1122       H  0.81913243  0.76301935  0.79613083     0.07600
H1123       H  0.89473328  0.79444128  0.77654225     0.08800
Cu1124     Cu  0.81774234  0.81725562  0.85396509     0.44200
Cu1125     Cu  0.88282415  0.84664314  0.84068468     0.42000
Cu1126     Cu  0.83506384  0.88897892  0.89279978     0.43900
N1127       N  0.79132466  0.84582828  0.87858026    -0.34800
N1128       N  0.79766508  0.87382284  0.89145482    -0.29100
C1129       C  0.77638204  0.88988333  0.89982994    -0.05200
C1130       C  0.75566372  0.87079817  0.89223434     0.07000
C1131       C  0.76582165  0.84295283  0.87895765     0.00800
H1132       H  0.77597197  0.91414447  0.90916977     0.08500
H1133       H  0.75540938  0.82329320  0.86761874     0.07500
N1134       N  0.87326197  0.90064322  0.89115403    -0.36300
N1135       N  0.89078083  0.88620663  0.87239115    -0.28500
C1136       C  0.91314785  0.90138565  0.87743227    -0.03700
C1137       C  0.90935796  0.92667358  0.90015961     0.04900
C1138       C  0.88388291  0.92495621  0.90850070     0.03000
H1139       H  0.93074419  0.89490808  0.86496540     0.08100
H1140       H  0.87359928  0.94018619  0.92608131     0.06900
N1141       N  0.11608066  0.83596995  0.66518527    -0.27500
N1142       N  0.14029282  0.82792964  0.66164335    -0.35300
C1143       C  0.14651516  0.80687229  0.68435705     0.00900
C1144       C  0.12539773  0.80097867  0.70344479     0.06900
C1145       C  0.10620479  0.81962267  0.69048691    -0.06200
H1146       H  0.16563257  0.79811281  0.68814960     0.07600
H1147       H  0.08720609  0.82291474  0.70037404     0.08800
Cu1148     Cu  0.16669375  0.85005766  0.63280254     0.44200
Cu1149     Cu  0.10003738  0.87265293  0.63822423     0.42000
Cu1150     Cu  0.15022083  0.92439188  0.60582644     0.43900
N1151       N  0.19379004  0.88164198  0.61834234    -0.34800
N1152       N  0.18779120  0.91057832  0.61036915    -0.29100
C1153       C  0.20929477  0.92727602  0.60694832    -0.05200
C1154       C  0.22973722  0.90757067  0.61273939     0.07000
C1155       C  0.21923316  0.87882252  0.61982866     0.00800
H1156       H  0.20996891  0.95194284  0.60123091     0.08500
H1157       H  0.22925349  0.85797228  0.62742307     0.07500
N1158       N  0.11152401  0.93044173  0.59850079    -0.36300
N1159       N  0.09321421  0.91193765  0.60902922    -0.28500
C1160       C  0.07070170  0.92264086  0.59746541    -0.03700
C1161       C  0.07520554  0.94911147  0.57897959     0.04900
C1162       C  0.10126506  0.95321579  0.58040180     0.03000
H1163       H  0.05246434  0.91200488  0.60227609     0.08100
H1164       H  0.11217328  0.97104993  0.56827737     0.06900
N1165       N  0.11786329  0.75053399  0.77515409    -0.27500
N1166       N  0.14224469  0.75825425  0.77725720    -0.35300
C1167       C  0.14780540  0.77789573  0.75296079     0.00900
C1168       C  0.12606334  0.78326733  0.73450312     0.06900
C1169       C  0.10723580  0.76573745  0.74935621    -0.06200
H1170       H  0.16670652  0.78675439  0.74835420     0.07600
H1171       H  0.08774871  0.76282977  0.74090213     0.08000
Cu1172     Cu  0.16930038  0.73981250  0.80897045     0.44200
Cu1173     Cu  0.10176169  0.71672221  0.80549883     0.42000
Cu1174     Cu  0.15099310  0.67519356  0.85369013     0.43900
N1175       N  0.19585157  0.71246734  0.83304838    -0.34800
N1176       N  0.18892023  0.68685572  0.84821982    -0.29100
C1177       C  0.20983010  0.67038205  0.85623465    -0.05200
C1178       C  0.23097279  0.68683838  0.84619690     0.07000
C1179       C  0.22144645  0.71345959  0.83160940     0.00800
H1180       H  0.20962467  0.64752867  0.86726244     0.08500
H1181       H  0.23217657  0.73073567  0.81839727     0.07500
N1182       N  0.11224993  0.66688420  0.85628870    -0.36300
N1183       N  0.09427407  0.68111240  0.83902887    -0.28500
C1184       C  0.07148099  0.66915279  0.84742165    -0.03700
C1185       C  0.07550508  0.64636677  0.87087584     0.04900
C1186       C  0.10147662  0.64589821  0.87604309     0.03000
H1187       H  0.05334268  0.67679310  0.83763023     0.08100
H1188       H  0.11185607  0.63131500  0.89306714     0.06900
C1189       C  0.01035379  0.56517008  0.94938595     0.86300
C1190       C  0.02751077  0.54618373  0.97265743    -0.53900
C1191       C  0.01476893  0.52758210  0.49408158     0.09200
C1192       C  0.98578279  0.52831799  0.48932552     0.20200
C1193       C  0.99422297  0.53925894  0.93090827    -0.54600
C1194       C  0.98153267  0.52009547  0.95183666     0.09300
C1195       C  0.99101097  0.58234636  0.97247610    -0.54200
C1196       C  0.97856688  0.56333852  0.49368970     0.09900
H1197       H  0.04815693  0.54677481  0.97167812     0.14400
H1198       H  0.97526360  0.01289028  0.50628079     0.00200
H1199       H  0.99234727  0.53570449  0.90405092     0.14700
H1200       H  0.98767209  0.60757633  0.97245177     0.14500
C1201       C  0.05736731  0.63028383  0.92424389    -0.26500
C1202       C  0.05669578  0.62781454  0.88924201    -0.14600
C1203       C  0.03963563  0.60624570  0.87332406     0.36100
C1204       C  0.02451362  0.58696483  0.89295085    -0.25900
C1205       C  0.02578168  0.58822450  0.92840370    -0.15200
C1206       C  0.04215470  0.61147815  0.94390243     0.37200
N1207       N  0.04422208  0.61695751  0.97951650    -0.89400
H1208       H  0.07017998  0.64705718  0.93665428     0.18300
H1209       H  0.01207637  0.57076948  0.87952082     0.18300
N1210       N  0.03790450  0.60188763  0.83746843    -0.88500
H1211       H  0.05127890  0.59709656  0.49087904     0.35600
H1212       H  0.02664409  0.62344810  0.48961135     0.40700
H1213       H  0.05091054  0.61573991  0.82510565     0.40400
H1214       H  0.01972032  0.60908661  0.83018756     0.35200
C1215       C  0.06205918  0.00154139  0.55974452    -0.26500
C1216       C  0.05712507  0.96909556  0.56043652    -0.14600
C1217       C  0.03645120  0.95641862  0.54156849     0.36100
C1218       C  0.02192249  0.97631260  0.52139468    -0.25900
C1219       C  0.02806414  0.00829002  0.51909595    -0.15200
C1220       C  0.04764260  0.02128659  0.53959196     0.37200
N1221       N  0.05280506  0.55451754  0.53986866    -0.89400
H1222       H  0.07747665  0.01153487  0.57481608     0.18300
H1223       H  0.00654204  0.96649836  0.50617486     0.18300
N1224       N  0.03100032  0.92328947  0.54164048    -0.88500
H1225       H  0.06781003  0.56031790  0.55626770     0.35600
H1226       H  0.03667690  0.56626849  0.54926546     0.40700
H1227       H  0.04644064  0.91132761  0.53061912     0.40400
H1228       H  0.01512488  0.91789232  0.52658984     0.35200
C1229       C  0.95375521  0.94239747  0.91708062    -0.26500
C1230       C  0.92806827  0.95080529  0.91271869    -0.14600
C1231       C  0.92047259  0.98220533  0.92084689     0.36100
C1232       C  0.93832544  0.00381608  0.93437069    -0.25900
C1233       C  0.96377716  0.99530075  0.93908129    -0.15200
C1234       C  0.97172931  0.96423125  0.93006971     0.37200
N1235       N  0.99773972  0.95408019  0.93328456    -0.89400
H1236       H  0.95991282  0.91855077  0.91070418     0.18300
H1237       H  0.93247466  0.52779379  0.94058650     0.18300
N1238       N  0.89486751  0.99245256  0.91441275    -0.88500
H1239       H  0.99821611  0.93638409  0.95074047     0.35600
H1240       H  0.00944732  0.97220058  0.94270000     0.40700
H1241       H  0.89200503  0.99104840  0.88845348     0.40400
H1242       H  0.89241984  0.01610973  0.92197864     0.35200
C1243       C  0.92493633  0.60686233  0.53954165    -0.26500
C1244       C  0.93070494  0.60077601  0.57304615    -0.14600
C1245       C  0.95228890  0.58215516  0.58035987     0.36100
C1246       C  0.96721160  0.56975500  0.55389380    -0.25900
C1247       C  0.96146159  0.57595805  0.52044878    -0.15200
C1248       C  0.94019049  0.59484264  0.51314966     0.37200
N1249       N  0.93396550  0.60134044  0.97900424    -0.89400
H1250       H  0.90830199  0.62092030  0.53397983     0.18300
H1251       H  0.98366631  0.55540449  0.55954106     0.18300
N1252       N  0.95923252  0.57447852  0.61396103    -0.88500
H1253       H  0.91783213  0.61575342  0.97797706     0.35600
H1254       H  0.92914951  0.57998013  0.96673666     0.40700
H1255       H  0.94662979  0.58421727  0.63163503     0.40400
H1256       H  0.97703555  0.58453814  0.61918330     0.35200
C1257       C  0.47119937  0.81838214  0.58326348    -0.26500
C1258       C  0.46255190  0.79824101  0.55683240    -0.14600
C1259       C  0.43716825  0.80134358  0.54547416     0.36100
C1260       C  0.42129716  0.82419192  0.56056234    -0.25900
C1261       C  0.42962143  0.84387536  0.58763425    -0.15200
C1262       C  0.45499524  0.84080411  0.59911414     0.37200
N1263       N  0.46405853  0.85944664  0.62751996    -0.89400
H1264       H  0.49059303  0.81598997  0.59221960     0.18300
H1265       H  0.40203166  0.82610336  0.55109477     0.18300
N1266       N  0.42628210  0.78050437  0.52021297    -0.88500
H1267       H  0.48320014  0.85453133  0.63240093     0.35600
H1268       H  0.45387994  0.85263406  0.64846893     0.40700
H1269       H  0.42916500  0.75728507  0.02707138     0.40400
H1270       H  0.43504073  0.78397265  0.99731115     0.35200
C1271       C  0.42884697  0.68417176  0.95180870    -0.26500
C1272       C  0.43051654  0.69676266  0.92002814    -0.14600
C1273       C  0.44817858  0.72081197  0.91438279     0.36100
C1274       C  0.46406241  0.73179729  0.94083666    -0.25900
C1275       C  0.46260003  0.71909113  0.97273257    -0.15200
C1276       C  0.44455877  0.69520939  0.97835676     0.37200
N1277       N  0.44185401  0.68268647  0.01107917    -0.89400
H1278       H  0.41488682  0.66602290  0.95602006     0.18300
H1279       H  0.47788535  0.75004097  0.93641194     0.18300
N1280       N  0.44967468  0.73417082  0.88194346    -0.88500
H1281       H  0.42778321  0.66532194  0.01088330     0.35600
H1282       H  0.43555766  0.70093431  0.52734383     0.40700
H1283       H  0.45583544  0.71641229  0.86496266     0.40400
H1284       H  0.46345939  0.75188766  0.88200740     0.35200
C1285       C  0.56042813  0.79374337  0.93653161    -0.26500
C1286       C  0.55609621  0.82638971  0.93597966    -0.14600
C1287       C  0.53652353  0.83984882  0.95617041     0.36100
C1288       C  0.52256109  0.82049465  0.97739096    -0.25900
C1289       C  0.52812212  0.78825211  0.97919474    -0.15200
C1290       C  0.54660330  0.77457003  0.95766863     0.37200
N1291       N  0.55124580  0.74117352  0.95736604    -0.89400
H1292       H  0.57492862  0.78308549  0.92052814     0.18300
H1293       H  0.50804806  0.83081731  0.99363129     0.18300
N1294       N  0.53155757  0.87312666  0.95617289    -0.88500
H1295       H  0.56547802  0.73480670  0.94017083     0.35600
H1296       H  0.53458539  0.72988495  0.94897938     0.40700
H1297       H  0.54761976  0.88467363  0.96612454     0.40400
H1298       H  0.51642948  0.87909755  0.97213921     0.35200
C1299       C  0.52010979  0.70243198  0.60210523    -0.26500
C1300       C  0.52565151  0.70624140  0.56785310    -0.14600
C1301       C  0.54583915  0.68793696  0.55354303     0.36100
C1302       C  0.56144907  0.66991656  0.57415597    -0.25900
C1303       C  0.55680106  0.66790904  0.60852612    -0.15200
C1304       C  0.53543941  0.68353301  0.62247510     0.37200
N1305       N  0.52976053  0.68091876  0.65743690    -0.89400
H1306       H  0.50381636  0.71391521  0.61348026     0.18300
H1307       H  0.57746165  0.65715987  0.56321351     0.18300
N1308       N  0.55097819  0.68827216  0.51818562    -0.88500
H1309       H  0.51330016  0.69362831  0.66380574     0.35600
H1310       H  0.54467898  0.69144161  0.67120982     0.40700
H1311       H  0.53590135  0.67697488  0.00553851     0.40400
H1312       H  0.56729244  0.67512809  0.01215722     0.35200
loop_ 
_geom_bond_atom_site_label_1 
_geom_bond_atom_site_label_2 
_geom_bond_distance 
_geom_bond_site_symmetry_2 
_ccdc_geom_bond_type 
N1            N2   1.325       .  A
N1            C5   1.355       .  A
N1           Cu9   2.110       .  S
N2            C3   1.341       .  A
N2           Cu8   2.076       .  S
C3            C4   1.380       .  A
C3            H6   1.082       .  S
C4            C5   1.390       .  A
C4           C28   1.480   1_545  S
C5            H7   1.082       .  S
Cu8          N11   2.073       .  S
Cu9          N19   2.110       .  S
Cu10         N12   2.066       .  S
Cu10         N18   2.067       .  S
N11          N12   1.319       .  A
N11          C15   1.347       .  A
N12          C13   1.344       .  A
C13          C14   1.382       .  A
C13          H16   1.082       .  S
C14          C15   1.384       .  A
C14         C122   1.468       .  S
C15          H17   1.082       .  S
N18          N19   1.324       .  A
N18          C22   1.341       .  A
N19          C20   1.354       .  A
C20          C21   1.393       .  A
C20          H23   1.082       .  S
C21          C22   1.380       .  A
C21         C319   1.487       .  S
C22          H24   1.082       .  S
N25          N26   1.324       .  A
N25          C29   1.355       .  A
N25         Cu33   2.107       .  S
N26         C683   1.340       .  A
N26         Cu32   2.068       .  S
C27         N682   1.340       .  A
C27          C28   1.380       .  A
C27          H30   1.082       .  S
C28         C685   1.391       .  A
C29         C684   1.391       .  A
C29          H31   1.082       .  S
Cu32         N35   2.066       .  S
Cu33         N43   2.108       .  S
Cu34         N36   2.067       .  S
Cu34         N42   2.068       .  S
N35          N36   1.319       .  A
N35          C39   1.344       .  A
N36          C37   1.346       .  A
C37          C38   1.384       .  A
C37          H40   1.082       .  S
C38          C39   1.383       .  A
C38         C146   1.470       .  S
C39          H41   1.082       .  S
N42          N43   1.324       .  A
N42          C46   1.340       .  A
N43          C44   1.354       .  A
C44          C45   1.394       .  A
C44          H47   1.081       .  S
C45          C46   1.381       .  A
C45         C302   1.490       .  S
C46          H48   1.082       .  S
N49          N50   1.322       .  A
N49          C53   1.353       .  A
N49         Cu57   2.091       .  S
N50          C51   1.340       .  A
N50         Cu56   2.068       .  S
C51          C52   1.381       .  A
C51          H54   1.082       .  S
C52          C53   1.389       .  A
C52          C76   1.477       .  S
C53          H55   1.082       .  S
Cu56         N59   2.067       .  S
Cu57         N67   2.094       .  S
Cu58         N60   2.078       .  S
Cu58         N66   2.081       .  S
N59          N60   1.320       .  A
N59          C63   1.344       .  A
N60          C61   1.348       .  A
C61          C62   1.385       .  A
C61          H64   1.082       .  S
C62          C63   1.381       .  A
C62         C194   1.469       .  S
C63          H65   1.082       .  S
N66          N67   1.326       .  A
N66          C70   1.345       .  A
N67          C68   1.348       .  A
C68          C69   1.384       .  A
C68          H71   1.082       .  S
C69          C70   1.379       .  A
C69         C288   1.474       .  S
C70          H72   1.082       .  S
N73          N74   1.323       .  A
N73         C733   1.354       .  A
N73         Cu81   2.100       .  S
N74         C731   1.339       .  A
N74         Cu80   2.064       .  S
C75         N730   1.339   1_545  A
C75          C76   1.379       .  A
C75          H78   1.082       .  S
C76          C77   1.390       .  A
C77         N729   1.354   1_545  A
C77          H79   1.082       .  S
Cu80         N83   2.063       .  S
Cu81         N91   2.101       .  S
Cu82         N84   2.060       .  S
Cu82         N90   2.061       .  S
N83          N84   1.319       .  A
N83          C87   1.345       .  A
N84          C85   1.343       .  A
C85          C86   1.382       .  A
C85          H88   1.082       .  S
C86          C87   1.383       .  A
C86         C170   1.467       .  S
C87          H89   1.082       .  S
N90          N91   1.322       .  A
N90          C94   1.340       .  A
N91          C92   1.350       .  A
C92          C93   1.395       .  A
C92          H95   1.081       .  S
C93          C94   1.384       .  A
C93         C277   1.494       .  S
C94          H96   1.081       .  S
C97          C98   1.541       .  S
C97         C103   1.537       .  S
C97         C101   1.547       .  S
C97         C316   1.545       .  S
C98         H105   1.086       .  S
C98         C427   1.365       .  D
C99         C100   1.533       .  S
C99         C426   1.365       .  D
C99         C305   1.486       .  S
C100        C104   1.541       .  S
C100        C430   1.540       .  S
C100        H106   1.107       .  S
C101        H107   1.082       .  S
C101        C102   1.370       .  D
C102        C428   1.540       .  S
C102        C274   1.490       .  S
C103        H108   1.086       .  S
C103        C432   1.368   1_554  D
C104        C431   1.368       .  D
C104        C291   1.489       .  S
N109        N110   1.322       .  A
N109        C113   1.355       .  A
N109       Cu117   2.102       .  S
N110        C111   1.338       .  A
N110       Cu116   2.062       .  S
C111        C112   1.379       .  A
C111        H114   1.082       .  S
C112        C113   1.391       .  A
C112        C136   1.477       .  S
C113        H115   1.082       .  S
Cu116       N119   2.061       .  S
Cu117       N127   2.103       .  S
Cu118       N120   2.074       .  S
Cu118       N126   2.076       .  S
N119        N120   1.319       .  A
N119        C123   1.343       .  A
N120        C121   1.348       .  A
C121        C122   1.385       .  A
C121        H124   1.082       .  S
C122        C123   1.381       .  A
C123        H125   1.082       .  S
N126        N127   1.326       .  A
N126        C130   1.343       .  A
N127        C128   1.351       .  A
C128        C129   1.387       .  A
C128        H131   1.082       .  S
C129        C130   1.378       .  A
C129        C260   1.478       .  S
C130        H132   1.082       .  S
N133        N134   1.324       .  A
N133        C137   1.355       .  A
N133       Cu141   2.104       .  S
N134        C135   1.339       .  A
N134       Cu140   2.070       .  S
C135        C136   1.379       .  A
C135        H138   1.082       .  S
C136        C137   1.390       .  A
C137        H139   1.082       .  S
Cu140       N143   2.067       .  S
Cu141       N151   2.104       .  S
Cu142       N144   2.068       .  S
Cu142       N150   2.070       .  S
N143        N144   1.319       .  A
N143        C147   1.346       .  A
N144        C145   1.345       .  A
C145        C146   1.384       .  A
C145        H148   1.082       .  S
C146        C147   1.383       .  A
C147        H149   1.082       .  S
N150        N151   1.323       .  A
N150        C154   1.341       .  A
N151        C152   1.352       .  A
C152        C153   1.393       .  A
C152        H155   1.082       .  S
C153        C154   1.383       .  A
C153        C246   1.492       .  S
C154        H156   1.081       .  S
N157        N158   1.323       .  A
N157        C161   1.355       .  A
N157       Cu165   2.101       .  S
N158        C159   1.338       .  A
N158       Cu164   2.060       .  S
C159        C160   1.378       .  A
C159        H162   1.082       .  S
C160        C161   1.391       .  A
C160        C184   1.476       .  S
C161        H163   1.082       .  S
Cu164       N167   2.059       .  S
Cu165       N175   2.102       .  S
Cu166       N168   2.066       .  S
Cu166       N174   2.069       .  S
N167        N168   1.319       .  A
N167        C171   1.343       .  A
N168        C169   1.346       .  A
C169        C170   1.384       .  A
C169        H172   1.082       .  S
C170        C171   1.381       .  A
C171        H173   1.082       .  S
N174        N175   1.324       .  A
N174        C178   1.341       .  A
N175        C176   1.351       .  A
C176        C177   1.391       .  A
C176        H179   1.082       .  S
C177        C178   1.381       .  A
C177        C232   1.486       .  S
C178        H180   1.082       .  S
N181        N182   1.324       .  A
N181        C185   1.355       .  A
N181       Cu189   2.098       .  S
N182        C183   1.338       .  A
N182       Cu188   2.071       .  S
C183        C184   1.379       .  A
C183        H186   1.082       .  S
C184        C185   1.389       .  A
C185        H187   1.082       .  S
Cu188       N191   2.070       .  S
Cu189       N199   2.099       .  S
Cu190       N192   2.069       .  S
Cu190       N198   2.070       .  S
N191        N192   1.319       .  A
N191        C195   1.347       .  A
N192        C193   1.345       .  A
C193        C194   1.383       .  A
C193        H196   1.082       .  S
C194        C195   1.384       .  A
C195        H197   1.082       .  S
N198        N199   1.325       .  A
N198        C202   1.342       .  A
N199        C200   1.351       .  A
C200        C201   1.388       .  A
C200        H203   1.082       .  S
C201        C202   1.379       .  A
C201        C218   1.481       .  S
C202        H204   1.082       .  S
C205        C206   1.540       .  S
C205        C211   1.538   1_455  S
C205        C209   1.551   1_455  S
C205        C221   1.547       .  S
C206        H213   1.086       .  S
C206        C535   1.366       .  D
C207        C208   1.534   1_455  S
C207        C534   1.366       .  D
C207        C891   1.487   1_556  S
C208        C212   1.537       .  S
C208        C538   1.538       .  S
C208        H870   1.111   1_556  S
C209        H215   1.081       .  S
C209        C210   1.367       .  D
C210        C536   1.538       .  S
C210        C905   1.482   1_545  S
C211        H216   1.086       .  S
C211        C540   1.364       .  D
C212        C539   1.364       .  D
C212        C263   1.482   1_556  S
H214        C864   1.111   1_554  S
C217        C218   1.397       .  A
C217        C222   1.397       .  A
C217        H224   1.085       .  S
C218        C219   1.413       .  A
C219        C220   1.406       .  A
C219        N226   1.438       .  S
C220        C221   1.415       .  A
C220        H225   1.075       .  S
C221        C222   1.431       .  A
C222        N223   1.435       .  S
N223        H555   1.040       .  S
N223        H556   1.041       .  S
N226        H229   1.042       .  S
N226        H230   1.045       .  S
H227        N551   1.040       .  S
H228        N551   1.041       .  S
C231        C232   1.404       .  A
C231        C236   1.403       .  A
C231        H238   1.084       .  S
C232        C233   1.414       .  A
C233        C234   1.411       .  A
C233        N240   1.437       .  S
C234        C235   1.404       .  A
C234        H239   1.082       .  S
C235        C236   1.410       .  A
C235        C863   1.487   1_554  S
C236        N893   1.438       .  S
N237        C892   1.438       .  S
N237        H241   1.045       .  S
N237        H242   1.046       .  S
N240        H243   1.046       .  S
N240        H244   1.046       .  S
C245        C246   1.406       .  A
C245        C250   1.407       .  A
C245        H252   1.083       .  S
C246        C247   1.417       .  A
C247        C248   1.405       .  A
C247        N254   1.438       .  S
C248        C249   1.398       .  A
C248        H909   1.083       .  S
C249        C250   1.416       .  A
C249        C866   1.482       .  S
C250        N251   1.438       .  S
N251        H255   1.045       .  S
N251        H256   1.043   1_655  S
H253        C904   1.083       .  S
N254        H257   1.046       .  S
N254        H258   1.045       .  S
C259        C260   1.404       .  A
C259        C264   1.406       .  A
C259        H266   1.084       .  S
C260        C261   1.416       .  A
C261        C262   1.404       .  A
C261        N268   1.438       .  S
C262        C263   1.402       .  A
C262        H267   1.084       .  S
C263        C264   1.410       .  A
C264        N593   1.437   1_554  S
N265        C592   1.437       .  S
N265        H269   1.046       .  S
N265        H270   1.045       .  S
N268        H271   1.043       .  S
N268        H272   1.046       .  S
C273        C274   1.406       .  A
C273        C278   1.409       .  A
C273        H280   1.084       .  S
C274        C275   1.413       .  A
C275        C276   1.398       .  A
C275        N282   1.433       .  S
C276        C277   1.408       .  A
C276        H281   1.082       .  S
C277        C278   1.414       .  A
C278        N279   1.437       .  S
N279        H283   1.045       .  S
N279        H284   1.046       .  S
N282        H613   1.045       .  S
N282        H614   1.042   1_554  S
H285        N610   1.045       .  S
H286        N610   1.042       .  S
C287        C288   1.400       .  A
C287        C292   1.406       .  A
C287        H294   1.084       .  S
C288        C289   1.407       .  A
C289        C290   1.408       .  A
C289        N296   1.437       .  S
C290        C291   1.405       .  A
C290        H295   1.084       .  S
C291        C292   1.415       .  A
C292        N293   1.438       .  S
N293        H297   1.045       .  S
N293        H626   1.045       .  S
N296        H299   1.046       .  S
N296        H300   1.046       .  S
H298        N621   1.045       .  S
C301        C302   1.406       .  A
C301        C306   1.403       .  A
C301        H308   1.083       .  S
C302        C303   1.415       .  A
C303        C304   1.413       .  A
C303        N310   1.437       .  S
C304        C305   1.404       .  A
C304        H309   1.084       .  S
C305        C306   1.409       .  A
C306        N307   1.438       .  S
N307        H311   1.045       .  S
N307        H312   1.046       .  S
N310        H313   1.045       .  S
N310        H314   1.046       .  S
C315        C316   1.415       .  A
C315        C320   1.413       .  A
C315        H322   1.077       .  S
C316        C317   1.422       .  A
C317        C318   1.405       .  A
C317        N324   1.439       .  S
C318        C319   1.401       .  A
C318        H323   1.084       .  S
C319        C320   1.408       .  A
C320        N321   1.438       .  S
N321        H325   1.045       .  S
N321        H326   1.046       .  S
N324        H655   1.044       .  S
N324        H656   1.045       .  S
H327        N652   1.044       .  S
H328        N652   1.045       .  S
N329        N330   1.325       .  A
N329        C333   1.355       .  A
N329       Cu337   2.110       .  S
N330        C331   1.341       .  A
N330       Cu336   2.076       .  S
C331        C332   1.380       .  A
C331        H334   1.082       .  S
C332        C333   1.390       .  A
C332        C356   1.480   1_545  S
C333        H335   1.082       .  S
Cu336       N339   2.073       .  S
Cu337       N347   2.110       .  S
Cu338       N340   2.066       .  S
Cu338       N346   2.067       .  S
N339        N340   1.319       .  A
N339        C343   1.347       .  A
N340        C341   1.344       .  A
C341        C342   1.382       .  A
C341        H344   1.082       .  S
C342        C343   1.384       .  A
C342        C450   1.468       .  S
C343        H345   1.082       .  S
N346        N347   1.324       .  A
N346        C350   1.341       .  A
N347        C348   1.354       .  A
C348        C349   1.393       .  A
C348        H351   1.082       .  S
C349        C350   1.380       .  A
C349        C647   1.487       .  S
C350        H352   1.082       .  S
N353        N354   1.324       .  A
N353        C357   1.355       .  A
N353       Cu361   2.107       .  S
N354       C1011   1.340       .  A
N354       Cu360   2.068       .  S
C355       N1010   1.340       .  A
C355        C356   1.380       .  A
C355        H358   1.082       .  S
C356       C1013   1.391       .  A
C357       C1012   1.391       .  A
C357        H359   1.082       .  S
Cu360       N363   2.066       .  S
Cu361       N371   2.108       .  S
Cu362       N364   2.067       .  S
Cu362       N370   2.068       .  S
N363        N364   1.319       .  A
N363        C367   1.344       .  A
N364        C365   1.346       .  A
C365        C366   1.384       .  A
C365        H368   1.082       .  S
C366        C367   1.383       .  A
C366        C474   1.470       .  S
C367        H369   1.082       .  S
N370        N371   1.324       .  A
N370        C374   1.340       .  A
N371        C372   1.354       .  A
C372        C373   1.394       .  A
C372        H375   1.081       .  S
C373        C374   1.381       .  A
C373        C630   1.490       .  S
C374        H376   1.082       .  S
N377        N378   1.322       .  A
N377        C381   1.353       .  A
N377       Cu385   2.091       .  S
N378        C379   1.340       .  A
N378       Cu384   2.068       .  S
C379        C380   1.381       .  A
C379        H382   1.082       .  S
C380        C381   1.389       .  A
C380        C404   1.477       .  S
C381        H383   1.082       .  S
Cu384       N387   2.067       .  S
Cu385       N395   2.094       .  S
Cu386       N388   2.078       .  S
Cu386       N394   2.081       .  S
N387        N388   1.320       .  A
N387        C391   1.344       .  A
N388        C389   1.348       .  A
C389        C390   1.385       .  A
C389        H392   1.082       .  S
C390        C391   1.381       .  A
C390        C522   1.469       .  S
C391        H393   1.082       .  S
N394        N395   1.326       .  A
N394        C398   1.345       .  A
N395        C396   1.348       .  A
C396        C397   1.384       .  A
C396        H399   1.082       .  S
C397        C398   1.379       .  A
C397        C616   1.474       .  S
C398        H400   1.082       .  S
N401        N402   1.323       .  A
N401       C1061   1.354       .  A
N401       Cu409   2.100       .  S
N402       C1059   1.339       .  A
N402       Cu408   2.064       .  S
C403       N1058   1.339   1_545  A
C403        C404   1.379       .  A
C403        H406   1.082       .  S
C404        C405   1.390       .  A
C405       N1057   1.354   1_545  A
C405        H407   1.082       .  S
Cu408       N411   2.063       .  S
Cu409       N419   2.101       .  S
Cu410       N412   2.060       .  S
Cu410       N418   2.061       .  S
N411        N412   1.319       .  A
N411        C415   1.345       .  A
N412        C413   1.343       .  A
C413        C414   1.382       .  A
C413        H416   1.082       .  S
C414        C415   1.383       .  A
C414        C498   1.467       .  S
C415        H417   1.082       .  S
N418        N419   1.322       .  A
N418        C422   1.340       .  A
N419        C420   1.350       .  A
C420        C421   1.395       .  A
C420        H423   1.081       .  S
C421        C422   1.384       .  A
C421        C605   1.494       .  S
C422        H424   1.081       .  S
C425        C426   1.541       .  S
C425        C431   1.537       .  S
C425        C429   1.547       .  S
C425        C644   1.545       .  S
C426        H433   1.086       .  S
C427        C428   1.533       .  S
C427        C633   1.486   1_554  S
C428        C432   1.541   1_554  S
C428        H434   1.107   1_554  S
C429        H435   1.082       .  S
C429        C430   1.370       .  D
C430        C602   1.490       .  S
C431        H436   1.086       .  S
C432        C619   1.489       .  S
N437        N438   1.322       .  A
N437        C441   1.355       .  A
N437       Cu445   2.102       .  S
N438        C439   1.338       .  A
N438       Cu444   2.062       .  S
C439        C440   1.379       .  A
C439        H442   1.082       .  S
C440        C441   1.391       .  A
C440        C464   1.477       .  S
C441        H443   1.082       .  S
Cu444       N447   2.061       .  S
Cu445       N455   2.103       .  S
Cu446       N448   2.074       .  S
Cu446       N454   2.076       .  S
N447        N448   1.319       .  A
N447        C451   1.343       .  A
N448        C449   1.348       .  A
C449        C450   1.385       .  A
C449        H452   1.082       .  S
C450        C451   1.381       .  A
C451        H453   1.082       .  S
N454        N455   1.326       .  A
N454        C458   1.343       .  A
N455        C456   1.351       .  A
C456        C457   1.387       .  A
C456        H459   1.082       .  S
C457        C458   1.378       .  A
C457        C588   1.478       .  S
C458        H460   1.082       .  S
N461        N462   1.324       .  A
N461        C465   1.355       .  A
N461       Cu469   2.104       .  S
N462        C463   1.339       .  A
N462       Cu468   2.070       .  S
C463        C464   1.379       .  A
C463        H466   1.082       .  S
C464        C465   1.390       .  A
C465        H467   1.082       .  S
Cu468       N471   2.067       .  S
Cu469       N479   2.104       .  S
Cu470       N472   2.068       .  S
Cu470       N478   2.070       .  S
N471        N472   1.319       .  A
N471        C475   1.346       .  A
N472        C473   1.345       .  A
C473        C474   1.384       .  A
C473        H476   1.082       .  S
C474        C475   1.383       .  A
C475        H477   1.082       .  S
N478        N479   1.323       .  A
N478        C482   1.341       .  A
N479        C480   1.352       .  A
C480        C481   1.393       .  A
C480        H483   1.082       .  S
C481        C482   1.383       .  A
C481        C574   1.492       .  S
C482        H484   1.081       .  S
N485        N486   1.323       .  A
N485        C489   1.355       .  A
N485       Cu493   2.101       .  S
N486        C487   1.338       .  A
N486       Cu492   2.060       .  S
C487        C488   1.378       .  A
C487        H490   1.082       .  S
C488        C489   1.391       .  A
C488        C512   1.476       .  S
C489        H491   1.082       .  S
Cu492       N495   2.059       .  S
Cu493       N503   2.102       .  S
Cu494       N496   2.066       .  S
Cu494       N502   2.069       .  S
N495        N496   1.319       .  A
N495        C499   1.343       .  A
N496        C497   1.346       .  A
C497        C498   1.384       .  A
C497        H500   1.082       .  S
C498        C499   1.381       .  A
C499        H501   1.082       .  S
N502        N503   1.324       .  A
N502        C506   1.341       .  A
N503        C504   1.351       .  A
C504        C505   1.391       .  A
C504        H507   1.082       .  S
C505        C506   1.381       .  A
C505        C560   1.486       .  S
C506        H508   1.082       .  S
N509        N510   1.324       .  A
N509        C513   1.355       .  A
N509       Cu517   2.098       .  S
N510        C511   1.338       .  A
N510       Cu516   2.071       .  S
C511        C512   1.379       .  A
C511        H514   1.082       .  S
C512        C513   1.389       .  A
C513        H515   1.082       .  S
Cu516       N519   2.070       .  S
Cu517       N527   2.099       .  S
Cu518       N520   2.069       .  S
Cu518       N526   2.070       .  S
N519        N520   1.319       .  A
N519        C523   1.347       .  A
N520        C521   1.345       .  A
C521        C522   1.383       .  A
C521        H524   1.082       .  S
C522        C523   1.384       .  A
C523        H525   1.082       .  S
N526        N527   1.325       .  A
N526        C530   1.342       .  A
N527        C528   1.351       .  A
C528        C529   1.388       .  A
C528        H531   1.082       .  S
C529        C530   1.379       .  A
C529        C546   1.481       .  S
C530        H532   1.082       .  S
C533        C534   1.540       .  S
C533        C539   1.538   1_455  S
C533        C537   1.551   1_455  S
C533        C549   1.547       .  S
C534        H541   1.086       .  S
C535        C536   1.534   1_455  S
C535       C1219   1.487       .  S
C536        C540   1.537       .  S
C536       H1198   1.111       .  S
C537        H543   1.081       .  S
C537        C538   1.367       .  D
C538       C1233   1.482   1_545  S
C539        H544   1.086       .  S
C540        C591   1.482       .  S
H542       C1192   1.111       .  S
C545        C546   1.397       .  A
C545        C550   1.397       .  A
C545        H552   1.085       .  S
C546        C547   1.413       .  A
C547        C548   1.406       .  A
C547        N554   1.438       .  S
C548        C549   1.415       .  A
C548        H553   1.075       .  S
C549        C550   1.431       .  A
C550        N551   1.435       .  S
N554        H557   1.042       .  S
N554        H558   1.045       .  S
C559        C560   1.404       .  A
C559        C564   1.403       .  A
C559        H566   1.084       .  S
C560        C561   1.414       .  A
C561        C562   1.411       .  A
C561        N568   1.437       .  S
C562        C563   1.404       .  A
C562        H567   1.082       .  S
C563        C564   1.410       .  A
C563       C1191   1.487       .  S
C564       N1221   1.438       .  S
N565       C1220   1.438       .  S
N565        H569   1.045       .  S
N565        H570   1.046       .  S
N568        H571   1.046       .  S
N568        H572   1.046       .  S
C573        C574   1.406       .  A
C573        C578   1.407       .  A
C573        H580   1.083       .  S
C574        C575   1.417       .  A
C575        C576   1.405       .  A
C575        N582   1.438       .  S
C576        C577   1.398       .  A
C576       H1237   1.083       .  S
C577        C578   1.416       .  A
C577       C1194   1.482       .  S
C578        N579   1.438       .  S
N579        H583   1.045       .  S
N579        H584   1.043   1_655  S
H581       C1232   1.083       .  S
N582        H585   1.046       .  S
N582        H586   1.045       .  S
C587        C588   1.404       .  A
C587        C592   1.406       .  A
C587        H594   1.084       .  S
C588        C589   1.416       .  A
C589        C590   1.404       .  A
C589        N596   1.438       .  S
C590        C591   1.402       .  A
C590        H595   1.084       .  S
C591        C592   1.410       .  A
N593        H597   1.046       .  S
N593        H598   1.045       .  S
N596        H599   1.043       .  S
N596        H600   1.046       .  S
C601        C602   1.406       .  A
C601        C606   1.409       .  A
C601        H608   1.084       .  S
C602        C603   1.413       .  A
C603        C604   1.398       .  A
C603        N610   1.433       .  S
C604        C605   1.408       .  A
C604        H609   1.082       .  S
C605        C606   1.414       .  A
C606        N607   1.437       .  S
N607        H611   1.045       .  S
N607        H612   1.046       .  S
C615        C616   1.400       .  A
C615        C620   1.406       .  A
C615        H622   1.084       .  S
C616        C617   1.407       .  A
C617        C618   1.408       .  A
C617        N624   1.437       .  S
C618        C619   1.405       .  A
C618        H623   1.084       .  S
C619        C620   1.415       .  A
C620        N621   1.438   1_556  S
N621        H625   1.045       .  S
N624        H627   1.046       .  S
N624        H628   1.046       .  S
C629        C630   1.406       .  A
C629        C634   1.403       .  A
C629        H636   1.083       .  S
C630        C631   1.415       .  A
C631        C632   1.413       .  A
C631        N638   1.437       .  S
C632        C633   1.404       .  A
C632        H637   1.084       .  S
C633        C634   1.409       .  A
C634        N635   1.438       .  S
N635        H639   1.045       .  S
N635        H640   1.046       .  S
N638        H641   1.045       .  S
N638        H642   1.046       .  S
C643        C644   1.415       .  A
C643        C648   1.413       .  A
C643        H650   1.077       .  S
C644        C645   1.422       .  A
C645        C646   1.405       .  A
C645        N652   1.439       .  S
C646        C647   1.401       .  A
C646        H651   1.084       .  S
C647        C648   1.408       .  A
C648        N649   1.438       .  S
N649        H653   1.045       .  S
N649        H654   1.046       .  S
N657        N658   1.325       .  A
N657        C661   1.355       .  A
N657       Cu665   2.110       .  S
N658        C659   1.341       .  A
N658       Cu664   2.076       .  S
C659        C660   1.380       .  A
C659        H662   1.082       .  S
C660        C661   1.390       .  A
C660        C684   1.480       .  S
C661        H663   1.082       .  S
Cu664       N667   2.073       .  S
Cu665       N675   2.110       .  S
Cu666       N668   2.066       .  S
Cu666       N674   2.067       .  S
N667        N668   1.319       .  A
N667        C671   1.347       .  A
N668        C669   1.344       .  A
C669        C670   1.382       .  A
C669        H672   1.082       .  S
C670        C671   1.384       .  A
C670        C778   1.468       .  S
C671        H673   1.082       .  S
N674        N675   1.324       .  A
N674        C678   1.341       .  A
N675        C676   1.354       .  A
C676        C677   1.393       .  A
C676        H679   1.082       .  S
C677        C678   1.380       .  A
C677        C975   1.487       .  S
C678        H680   1.082       .  S
N681        N682   1.324       .  A
N681        C685   1.355       .  A
N681       Cu689   2.107       .  S
N682       Cu688   2.068       .  S
C683        C684   1.380       .  A
C683        H686   1.082       .  S
C685        H687   1.082       .  S
Cu688       N691   2.066       .  S
Cu689       N699   2.108       .  S
Cu690       N692   2.067       .  S
Cu690       N698   2.068       .  S
N691        N692   1.319       .  A
N691        C695   1.344       .  A
N692        C693   1.346       .  A
C693        C694   1.384       .  A
C693        H696   1.082       .  S
C694        C695   1.383       .  A
C694        C802   1.470       .  S
C695        H697   1.082       .  S
N698        N699   1.324       .  A
N698        C702   1.340       .  A
N699        C700   1.354       .  A
C700        C701   1.394       .  A
C700        H703   1.081       .  S
C701        C702   1.381       .  A
C701        C958   1.490       .  S
C702        H704   1.082       .  S
N705        N706   1.322       .  A
N705        C709   1.353       .  A
N705       Cu713   2.091       .  S
N706        C707   1.340       .  A
N706       Cu712   2.068       .  S
C707        C708   1.381       .  A
C707        H710   1.082       .  S
C708        C709   1.389       .  A
C708        C732   1.477       .  S
C709        H711   1.082       .  S
Cu712       N715   2.067       .  S
Cu713       N723   2.094       .  S
Cu714       N716   2.078       .  S
Cu714       N722   2.081       .  S
N715        N716   1.320       .  A
N715        C719   1.344       .  A
N716        C717   1.348       .  A
C717        C718   1.385       .  A
C717        H720   1.082       .  S
C718        C719   1.381       .  A
C718        C850   1.469       .  S
C719        H721   1.082       .  S
N722        N723   1.326       .  A
N722        C726   1.345       .  A
N723        C724   1.348       .  A
C724        C725   1.384       .  A
C724        H727   1.082       .  S
C725        C726   1.379       .  A
C725        C944   1.474       .  S
C726        H728   1.082       .  S
N729        N730   1.323       .  A
N729       Cu737   2.100       .  S
N730       Cu736   2.064       .  S
C731        C732   1.379       .  A
C731        H734   1.082       .  S
C732        C733   1.390       .  A
C733        H735   1.082       .  S
Cu736       N739   2.063       .  S
Cu737       N747   2.101       .  S
Cu738       N740   2.060       .  S
Cu738       N746   2.061       .  S
N739        N740   1.319       .  A
N739        C743   1.345       .  A
N740        C741   1.343       .  A
C741        C742   1.382       .  A
C741        H744   1.082       .  S
C742        C743   1.383       .  A
C742        C826   1.467       .  S
C743        H745   1.082       .  S
N746        N747   1.322       .  A
N746        C750   1.340       .  A
N747        C748   1.350       .  A
C748        C749   1.395       .  A
C748        H751   1.081       .  S
C749        C750   1.384       .  A
C749        C933   1.494       .  S
C750        H752   1.081       .  S
C753        C754   1.541       .  S
C753        C759   1.537       .  S
C753        C757   1.547       .  S
C753        C972   1.545       .  S
C754        H761   1.086       .  S
C754       C1083   1.365       .  D
C755        C756   1.533       .  S
C755       C1082   1.365       .  D
C755        C961   1.486       .  S
C756        C760   1.541       .  S
C756       C1086   1.540       .  S
C756        H762   1.107       .  S
C757        H763   1.082       .  S
C757        C758   1.370       .  D
C758       C1084   1.540       .  S
C758        C930   1.490       .  S
C759        H764   1.086       .  S
C759       C1088   1.368   1_554  D
C760       C1087   1.368       .  D
C760        C947   1.489       .  S
N765        N766   1.323       .  A
N765        C769   1.355       .  A
N765       Cu773   2.102       .  S
N766        C767   1.338       .  A
N766       Cu772   2.062       .  S
C767        C768   1.379       .  A
C767        H770   1.082       .  S
C768        C769   1.391       .  A
C768        C792   1.477       .  S
C769        H771   1.082       .  S
Cu772       N775   2.061       .  S
Cu773       N783   2.103       .  S
Cu774       N776   2.074       .  S
Cu774       N782   2.076       .  S
N775        N776   1.319       .  A
N775        C779   1.343       .  A
N776        C777   1.348       .  A
C777        C778   1.385       .  A
C777        H780   1.082       .  S
C778        C779   1.381       .  A
C779        H781   1.082       .  S
N782        N783   1.326       .  A
N782        C786   1.343       .  A
N783        C784   1.351       .  A
C784        C785   1.387       .  A
C784        H787   1.082       .  S
C785        C786   1.378       .  A
C785        C916   1.478       .  S
C786        H788   1.082       .  S
N789        N790   1.324       .  A
N789        C793   1.355       .  A
N789       Cu797   2.104       .  S
N790        C791   1.339       .  A
N790       Cu796   2.070       .  S
C791        C792   1.379       .  A
C791        H794   1.082       .  S
C792        C793   1.390       .  A
C793        H795   1.082       .  S
Cu796       N799   2.067       .  S
Cu797       N807   2.104       .  S
Cu798       N800   2.068       .  S
Cu798       N806   2.070       .  S
N799        N800   1.319       .  A
N799        C803   1.346       .  A
N800        C801   1.345       .  A
C801        C802   1.384       .  A
C801        H804   1.082       .  S
C802        C803   1.384       .  A
C803        H805   1.082       .  S
N806        N807   1.323       .  A
N806        C810   1.341       .  A
N807        C808   1.352       .  A
C808        C809   1.393       .  A
C808        H811   1.082       .  S
C809        C810   1.383       .  A
C809        C902   1.492       .  S
C810        H812   1.081       .  S
N813        N814   1.323       .  A
N813        C817   1.355       .  A
N813       Cu821   2.101       .  S
N814        C815   1.338       .  A
N814       Cu820   2.060       .  S
C815        C816   1.378       .  A
C815        H818   1.082       .  S
C816        C817   1.391       .  A
C816        C840   1.476       .  S
C817        H819   1.082       .  S
Cu820       N823   2.059       .  S
Cu821       N831   2.102       .  S
Cu822       N824   2.066       .  S
Cu822       N830   2.069       .  S
N823        N824   1.319       .  A
N823        C827   1.343       .  A
N824        C825   1.346       .  A
C825        C826   1.384       .  A
C825        H828   1.082       .  S
C826        C827   1.381       .  A
C827        H829   1.082       .  S
N830        N831   1.324       .  A
N830        C834   1.341       .  A
N831        C832   1.351       .  A
C832        C833   1.391       .  A
C832        H835   1.082       .  S
C833        C834   1.381       .  A
C833        C888   1.486       .  S
C834        H836   1.082       .  S
N837        N838   1.324       .  A
N837        C841   1.355       .  A
N837       Cu845   2.098       .  S
N838        C839   1.338       .  A
N838       Cu844   2.071       .  S
C839        C840   1.379       .  A
C839        H842   1.082       .  S
C840        C841   1.389       .  A
C841        H843   1.082       .  S
Cu844       N847   2.070       .  S
Cu845       N855   2.099       .  S
Cu846       N848   2.069       .  S
Cu846       N854   2.070       .  S
N847        N848   1.319       .  A
N847        C851   1.347       .  A
N848        C849   1.345       .  A
C849        C850   1.383       .  A
C849        H852   1.082       .  S
C850        C851   1.384       .  A
C851        H853   1.082       .  S
N854        N855   1.325       .  A
N854        C858   1.342       .  A
N855        C856   1.351       .  A
C856        C857   1.388       .  A
C856        H859   1.082       .  S
C857        C858   1.379       .  A
C857        C874   1.481       .  S
C858        H860   1.082       .  S
C861        C862   1.540       .  S
C861        C867   1.538   1_455  S
C861        C865   1.551   1_455  S
C861        C877   1.547       .  S
C862        H869   1.086       .  S
C862       C1191   1.366       .  D
C863        C864   1.534   1_455  S
C863       C1190   1.366       .  D
C864        C868   1.537       .  S
C864       C1194   1.538       .  S
C865        H871   1.081       .  S
C865        C866   1.367       .  D
C866       C1192   1.538       .  S
C867        H872   1.086       .  S
C867       C1196   1.364       .  D
C868       C1195   1.364       .  D
C868        C919   1.482   1_556  S
C873        C874   1.397       .  A
C873        C878   1.397       .  A
C873        H880   1.085       .  S
C874        C875   1.413       .  A
C875        C876   1.406       .  A
C875        N882   1.438       .  S
C876        C877   1.415       .  A
C876        H881   1.075       .  S
C877        C878   1.431       .  A
C878        N879   1.435       .  S
N879       H1211   1.040       .  S
N879       H1212   1.041       .  S
N882        H885   1.042       .  S
N882        H886   1.045       .  S
H883       N1207   1.040       .  S
H884       N1207   1.041       .  S
C887        C888   1.404   1_545  A
C887        C892   1.403       .  A
C887        H894   1.084       .  S
C888        C889   1.414       .  A
C889        C890   1.411       .  A
C889        N896   1.437       .  S
C890        C891   1.404   1_565  A
C890        H895   1.082       .  S
C891        C892   1.410       .  A
N893        H897   1.045       .  S
N893        H898   1.046       .  S
N896        H899   1.046       .  S
N896        H900   1.046       .  S
C901        C902   1.406       .  A
C901        C906   1.407       .  A
C901        H908   1.083       .  S
C902        C903   1.417       .  A
C903        C904   1.405   1_565  A
C903        N910   1.438       .  S
C904        C905   1.398   1_545  A
C905        C906   1.416       .  A
C906        N907   1.438       .  S
N907        H911   1.045       .  S
N907        H912   1.043   1_655  S
N910        H913   1.046       .  S
N910        H914   1.045   1_565  S
C915        C916   1.404       .  A
C915        C920   1.406       .  A
C915        H922   1.084       .  S
C916        C917   1.416       .  A
C917        C918   1.404       .  A
C917        N924   1.438       .  S
C918        C919   1.402       .  A
C918        H923   1.084       .  S
C919        C920   1.410       .  A
C920       N1249   1.437   1_554  S
N921       C1248   1.437       .  S
N921        H925   1.046       .  S
N921        H926   1.045       .  S
N924        H927   1.043       .  S
N924        H928   1.046       .  S
C929        C930   1.406       .  A
C929        C934   1.409       .  A
C929        H936   1.084       .  S
C930        C931   1.413       .  A
C931        C932   1.398       .  A
C931        N938   1.433       .  S
C932        C933   1.408       .  A
C932        H937   1.082       .  S
C933        C934   1.414       .  A
C934        N935   1.437       .  S
N935        H939   1.045       .  S
N935        H940   1.046       .  S
N938       H1269   1.045       .  S
N938       H1270   1.042   1_554  S
H941       N1266   1.045       .  S
H942       N1266   1.042       .  S
C943        C944   1.400       .  A
C943        C948   1.406       .  A
C943        H950   1.084       .  S
C944        C945   1.407       .  A
C945        C946   1.408       .  A
C945        N952   1.437       .  S
C946        C947   1.405       .  A
C946        H951   1.084       .  S
C947        C948   1.415       .  A
C948        N949   1.438       .  S
N949        H953   1.045       .  S
N949       H1282   1.045       .  S
N952        H955   1.046       .  S
N952        H956   1.046       .  S
H954       N1277   1.045       .  S
C957        C958   1.406       .  A
C957        C962   1.403       .  A
C957        H964   1.083       .  S
C958        C959   1.415       .  A
C959        C960   1.413       .  A
C959        N966   1.437       .  S
C960        C961   1.404       .  A
C960        H965   1.084       .  S
C961        C962   1.409       .  A
C962        N963   1.438       .  S
N963        H967   1.045       .  S
N963        H968   1.046       .  S
N966        H969   1.045       .  S
N966        H970   1.046       .  S
C971        C972   1.415       .  A
C971        C976   1.413       .  A
C971        H978   1.077       .  S
C972        C973   1.422       .  A
C973        C974   1.405       .  A
C973        N980   1.439       .  S
C974        C975   1.401       .  A
C974        H979   1.084       .  S
C975        C976   1.408       .  A
C976        N977   1.438       .  S
N977        H981   1.045       .  S
N977        H982   1.046       .  S
N980       H1311   1.044       .  S
N980       H1312   1.045       .  S
H983       N1308   1.044       .  S
H984       N1308   1.045       .  S
N985        N986   1.325       .  A
N985        C989   1.355       .  A
N985       Cu993   2.110       .  S
N986        C987   1.341       .  A
N986       Cu992   2.076       .  S
C987        C988   1.380       .  A
C987        H990   1.082       .  S
C988        C989   1.390       .  A
C988       C1012   1.480       .  S
C989        H991   1.082       .  S
Cu992       N995   2.073       .  S
Cu993      N1003   2.110       .  S
Cu994       N996   2.066       .  S
Cu994      N1002   2.067       .  S
N995        N996   1.319       .  A
N995        C999   1.347       .  A
N996        C997   1.344       .  A
C997        C998   1.382       .  A
C997       H1000   1.082       .  S
C998        C999   1.384       .  A
C998       C1106   1.468       .  S
C999       H1001   1.082       .  S
N1002      N1003   1.324       .  A
N1002      C1006   1.341       .  A
N1003      C1004   1.354       .  A
C1004      C1005   1.393       .  A
C1004      H1007   1.082       .  S
C1005      C1006   1.380       .  A
C1005      C1303   1.487       .  S
C1006      H1008   1.082       .  S
N1009      N1010   1.324       .  A
N1009      C1013   1.355       .  A
N1009     Cu1017   2.107       .  S
N1010     Cu1016   2.068       .  S
C1011      C1012   1.380       .  A
C1011      H1014   1.082       .  S
C1013      H1015   1.082       .  S
Cu1016     N1019   2.066       .  S
Cu1017     N1027   2.108       .  S
Cu1018     N1020   2.067       .  S
Cu1018     N1026   2.068       .  S
N1019      N1020   1.319       .  A
N1019      C1023   1.344       .  A
N1020      C1021   1.346       .  A
C1021      C1022   1.384       .  A
C1021      H1024   1.082       .  S
C1022      C1023   1.383       .  A
C1022      C1130   1.470       .  S
C1023      H1025   1.082       .  S
N1026      N1027   1.324       .  A
N1026      C1030   1.340       .  A
N1027      C1028   1.354       .  A
C1028      C1029   1.394       .  A
C1028      H1031   1.081       .  S
C1029      C1030   1.381       .  A
C1029      C1286   1.490       .  S
C1030      H1032   1.082       .  S
N1033      N1034   1.322       .  A
N1033      C1037   1.353       .  A
N1033     Cu1041   2.091       .  S
N1034      C1035   1.340       .  A
N1034     Cu1040   2.068       .  S
C1035      C1036   1.381       .  A
C1035      H1038   1.082       .  S
C1036      C1037   1.389       .  A
C1036      C1060   1.477       .  S
C1037      H1039   1.082       .  S
Cu1040     N1043   2.067       .  S
Cu1041     N1051   2.094       .  S
Cu1042     N1044   2.078       .  S
Cu1042     N1050   2.081       .  S
N1043      N1044   1.320       .  A
N1043      C1047   1.344       .  A
N1044      C1045   1.348       .  A
C1045      C1046   1.385       .  A
C1045      H1048   1.082       .  S
C1046      C1047   1.381       .  A
C1046      C1178   1.469       .  S
C1047      H1049   1.082       .  S
N1050      N1051   1.326       .  A
N1050      C1054   1.345       .  A
N1051      C1052   1.348       .  A
C1052      C1053   1.384       .  A
C1052      H1055   1.082       .  S
C1053      C1054   1.379       .  A
C1053      C1272   1.474       .  S
C1054      H1056   1.082       .  S
N1057      N1058   1.323       .  A
N1057     Cu1065   2.100       .  S
N1058     Cu1064   2.064       .  S
C1059      C1060   1.379       .  A
C1059      H1062   1.082       .  S
C1060      C1061   1.390       .  A
C1061      H1063   1.082       .  S
Cu1064     N1067   2.063       .  S
Cu1065     N1075   2.101       .  S
Cu1066     N1068   2.060       .  S
Cu1066     N1074   2.061       .  S
N1067      N1068   1.319       .  A
N1067      C1071   1.345       .  A
N1068      C1069   1.343       .  A
C1069      C1070   1.382       .  A
C1069      H1072   1.082       .  S
C1070      C1071   1.383       .  A
C1070      C1154   1.467       .  S
C1071      H1073   1.082       .  S
N1074      N1075   1.322       .  A
N1074      C1078   1.340       .  A
N1075      C1076   1.350       .  A
C1076      C1077   1.395       .  A
C1076      H1079   1.081       .  S
C1077      C1078   1.384       .  A
C1077      C1261   1.494       .  S
C1078      H1080   1.081       .  S
C1081      C1082   1.541       .  S
C1081      C1087   1.537       .  S
C1081      C1085   1.547       .  S
C1081      C1300   1.545       .  S
C1082      H1089   1.086       .  S
C1083      C1084   1.533       .  S
C1083      C1289   1.486   1_554  S
C1084      C1088   1.541   1_554  S
C1084      H1090   1.107   1_554  S
C1085      H1091   1.082       .  S
C1085      C1086   1.370       .  D
C1086      C1258   1.490       .  S
C1087      H1092   1.086       .  S
C1088      C1275   1.489       .  S
N1093      N1094   1.322       .  A
N1093      C1097   1.355       .  A
N1093     Cu1101   2.102       .  S
N1094      C1095   1.338       .  A
N1094     Cu1100   2.062       .  S
C1095      C1096   1.379       .  A
C1095      H1098   1.082       .  S
C1096      C1097   1.391       .  A
C1096      C1120   1.477       .  S
C1097      H1099   1.082       .  S
Cu1100     N1103   2.061       .  S
Cu1101     N1111   2.103       .  S
Cu1102     N1104   2.074       .  S
Cu1102     N1110   2.076       .  S
N1103      N1104   1.319       .  A
N1103      C1107   1.343       .  A
N1104      C1105   1.348       .  A
C1105      C1106   1.385       .  A
C1105      H1108   1.082       .  S
C1106      C1107   1.381       .  A
C1107      H1109   1.082       .  S
N1110      N1111   1.326       .  A
N1110      C1114   1.343       .  A
N1111      C1112   1.351       .  A
C1112      C1113   1.387       .  A
C1112      H1115   1.082       .  S
C1113      C1114   1.378       .  A
C1113      C1244   1.478       .  S
C1114      H1116   1.082       .  S
N1117      N1118   1.324       .  A
N1117      C1121   1.355       .  A
N1117     Cu1125   2.104       .  S
N1118      C1119   1.339       .  A
N1118     Cu1124   2.070       .  S
C1119      C1120   1.379       .  A
C1119      H1122   1.082       .  S
C1120      C1121   1.390       .  A
C1121      H1123   1.082       .  S
Cu1124     N1127   2.067       .  S
Cu1125     N1135   2.104       .  S
Cu1126     N1128   2.068       .  S
Cu1126     N1134   2.070       .  S
N1127      N1128   1.319       .  A
N1127      C1131   1.346       .  A
N1128      C1129   1.345       .  A
C1129      C1130   1.384       .  A
C1129      H1132   1.082       .  S
C1130      C1131   1.384       .  A
C1131      H1133   1.082       .  S
N1134      N1135   1.323       .  A
N1134      C1138   1.341       .  A
N1135      C1136   1.352       .  A
C1136      C1137   1.393       .  A
C1136      H1139   1.082       .  S
C1137      C1138   1.383       .  A
C1137      C1230   1.492       .  S
C1138      H1140   1.081       .  S
N1141      N1142   1.323       .  A
N1141      C1145   1.355       .  A
N1141     Cu1149   2.101       .  S
N1142      C1143   1.338       .  A
N1142     Cu1148   2.060       .  S
C1143      C1144   1.378       .  A
C1143      H1146   1.082       .  S
C1144      C1145   1.391       .  A
C1144      C1168   1.476       .  S
C1145      H1147   1.082       .  S
Cu1148     N1151   2.059       .  S
Cu1149     N1159   2.102       .  S
Cu1150     N1152   2.066       .  S
Cu1150     N1158   2.069       .  S
N1151      N1152   1.319       .  A
N1151      C1155   1.343       .  A
N1152      C1153   1.346       .  A
C1153      C1154   1.384       .  A
C1153      H1156   1.082       .  S
C1154      C1155   1.381       .  A
C1155      H1157   1.082       .  S
N1158      N1159   1.324       .  A
N1158      C1162   1.341       .  A
N1159      C1160   1.351       .  A
C1160      C1161   1.391       .  A
C1160      H1163   1.082       .  S
C1161      C1162   1.381       .  A
C1161      C1216   1.486       .  S
C1162      H1164   1.082       .  S
N1165      N1166   1.324       .  A
N1165      C1169   1.355       .  A
N1165     Cu1173   2.098       .  S
N1166      C1167   1.338       .  A
N1166     Cu1172   2.071       .  S
C1167      C1168   1.379       .  A
C1167      H1170   1.082       .  S
C1168      C1169   1.389       .  A
C1169      H1171   1.082       .  S
Cu1172     N1175   2.070       .  S
Cu1173     N1183   2.099       .  S
Cu1174     N1176   2.069       .  S
Cu1174     N1182   2.070       .  S
N1175      N1176   1.319       .  A
N1175      C1179   1.347       .  A
N1176      C1177   1.345       .  A
C1177      C1178   1.383       .  A
C1177      H1180   1.082       .  S
C1178      C1179   1.384       .  A
C1179      H1181   1.082       .  S
N1182      N1183   1.325       .  A
N1182      C1186   1.342       .  A
N1183      C1184   1.351       .  A
C1184      C1185   1.388       .  A
C1184      H1187   1.082       .  S
C1185      C1186   1.379       .  A
C1185      C1202   1.481       .  S
C1186      H1188   1.082       .  S
C1189      C1190   1.540       .  S
C1189      C1195   1.538   1_455  S
C1189      C1193   1.551   1_455  S
C1189      C1205   1.547       .  S
C1190      H1197   1.086       .  S
C1191      C1192   1.534   1_455  S
C1192      C1196   1.537       .  S
C1193      H1199   1.081       .  S
C1193      C1194   1.367       .  D
C1195      H1200   1.086       .  S
C1196      C1247   1.482       .  S
C1201      C1202   1.397       .  A
C1201      C1206   1.397       .  A
C1201      H1208   1.085       .  S
C1202      C1203   1.413       .  A
C1203      C1204   1.406       .  A
C1203      N1210   1.438       .  S
C1204      C1205   1.415       .  A
C1204      H1209   1.075       .  S
C1205      C1206   1.431       .  A
C1206      N1207   1.435       .  S
N1210      H1213   1.042       .  S
N1210      H1214   1.045       .  S
C1215      C1216   1.404   1_545  A
C1215      C1220   1.403       .  A
C1215      H1222   1.084       .  S
C1216      C1217   1.414       .  A
C1217      C1218   1.411       .  A
C1217      N1224   1.437       .  S
C1218      C1219   1.404   1_565  A
C1218      H1223   1.082       .  S
C1219      C1220   1.410       .  A
N1221      H1225   1.045       .  S
N1221      H1226   1.046       .  S
N1224      H1227   1.046       .  S
N1224      H1228   1.046       .  S
C1229      C1230   1.406       .  A
C1229      C1234   1.407       .  A
C1229      H1236   1.083       .  S
C1230      C1231   1.417       .  A
C1231      C1232   1.405   1_565  A
C1231      N1238   1.438       .  S
C1232      C1233   1.398   1_545  A
C1233      C1234   1.416       .  A
C1234      N1235   1.438       .  S
N1235      H1239   1.045       .  S
N1235      H1240   1.043   1_655  S
N1238      H1241   1.046       .  S
N1238      H1242   1.045   1_565  S
C1243      C1244   1.404       .  A
C1243      C1248   1.406       .  A
C1243      H1250   1.084       .  S
C1244      C1245   1.416       .  A
C1245      C1246   1.404       .  A
C1245      N1252   1.438       .  S
C1246      C1247   1.402       .  A
C1246      H1251   1.084       .  S
C1247      C1248   1.410       .  A
N1249      H1253   1.046       .  S
N1249      H1254   1.045       .  S
N1252      H1255   1.043       .  S
N1252      H1256   1.046       .  S
C1257      C1258   1.406       .  A
C1257      C1262   1.409       .  A
C1257      H1264   1.084       .  S
C1258      C1259   1.413       .  A
C1259      C1260   1.398       .  A
C1259      N1266   1.433       .  S
C1260      C1261   1.408       .  A
C1260      H1265   1.082       .  S
C1261      C1262   1.414       .  A
C1262      N1263   1.437       .  S
N1263      H1267   1.045       .  S
N1263      H1268   1.046       .  S
C1271      C1272   1.400       .  A
C1271      C1276   1.406       .  A
C1271      H1278   1.084       .  S
C1272      C1273   1.407       .  A
C1273      C1274   1.408       .  A
C1273      N1280   1.437       .  S
C1274      C1275   1.405       .  A
C1274      H1279   1.084       .  S
C1275      C1276   1.415       .  A
C1276      N1277   1.438   1_556  S
N1277      H1281   1.045       .  S
N1280      H1283   1.046       .  S
N1280      H1284   1.046       .  S
C1285      C1286   1.406       .  A
C1285      C1290   1.403       .  A
C1285      H1292   1.083       .  S
C1286      C1287   1.415       .  A
C1287      C1288   1.413       .  A
C1287      N1294   1.437       .  S
C1288      C1289   1.404       .  A
C1288      H1293   1.084       .  S
C1289      C1290   1.409       .  A
C1290      N1291   1.438       .  S
N1291      H1295   1.045       .  S
N1291      H1296   1.046       .  S
N1294      H1297   1.045       .  S
N1294      H1298   1.046       .  S
C1299      C1300   1.415       .  A
C1299      C1304   1.413       .  A
C1299      H1306   1.077       .  S
C1300      C1301   1.422       .  A
C1301      C1302   1.405       .  A
C1301      N1308   1.439       .  S
C1302      C1303   1.401       .  A
C1302      H1307   1.084       .  S
C1303      C1304   1.408       .  A
C1304      N1305   1.438       .  S
N1305      H1309   1.045       .  S
N1305      H1310   1.046       .  S
