geometry optimzed in LAMMPS
_audit_creation_date              2020-11-30 
_audit_creation_method            'lammps2cif' 
_symmetry_space_group_name_H-M    'P1' 
_symmetry_Int_Tables_number       1 
_symmetry_cell_setting            triclinic 
loop_ 
_symmetry_equiv_pos_as_xyz 
  x,y,z 
_cell_length_a                    47.75537912969012 
_cell_length_b                    47.49737739751492 
_cell_length_c                    47.342676553639436 
_cell_angle_alpha                 90.20646164216845 
_cell_angle_beta                  90.85150527389044 
_cell_angle_gamma                 90.47456087876422 
loop_ 
_atom_site_label 
_atom_site_type_symbol 
_atom_site_fract_x 
_atom_site_fract_y 
_atom_site_fract_z 
_atom_site_charge 
C1          C  0.69297387  0.68542609  0.89633171     0.03230
C2          C  0.70323608  0.66389652  0.91399955    -0.12920
C3          C  0.68560290  0.65068153  0.93351672     0.00730
C4          C  0.65810431  0.65979298  0.93661909    -0.11440
C5          C  0.64786606  0.68195536  0.92041957     0.03220
C6          C  0.66464947  0.69351361  0.89931060    -0.10860
H7          H  0.72512946  0.65826581  0.91386257     0.08820
H8          H  0.64548014  0.65131707  0.95350326     0.06350
H9          H  0.65581268  0.71025153  0.88668397     0.06200
C10         C  0.87038693  0.68955448  0.71873995     0.03230
C11         C  0.87808301  0.66256405  0.72805186    -0.12920
C12         C  0.89730556  0.64639347  0.71261606     0.00730
C13         C  0.90770114  0.65707502  0.68729153    -0.11440
C14         C  0.90040478  0.68399458  0.67816595     0.03220
C15         C  0.88172754  0.70015210  0.69383169    -0.10860
H16         H  0.87070414  0.65501571  0.74819462     0.08820
H17         H  0.92402966  0.64586837  0.67635634     0.06350
H18         H  0.87708347  0.72150414  0.68734109     0.06200
C19         C  0.70186458  0.87771366  0.72501627     0.03230
C20         C  0.71023188  0.89113065  0.70007824    -0.12920
C21         C  0.69281877  0.91120708  0.68721779     0.00730
C22         C  0.66678250  0.91707861  0.69886766    -0.11440
C23         C  0.65859111  0.90460667  0.72416999     0.03220
C24         C  0.67588244  0.88427594  0.73676768    -0.10860
H25         H  0.73072226  0.88697280  0.69153015     0.08820
H26         H  0.65383825  0.93322463  0.68933287     0.06350
H27         H  0.66973293  0.87447093  0.75638926     0.06200
C28         C  0.75182206  0.78236176  0.81145187     0.02390
C29         C  0.76194846  0.75530483  0.82131922     0.02390
C30         C  0.78981117  0.74693530  0.81343660     0.02390
C31         C  0.80209487  0.76031757  0.78942642     0.02390
C32         C  0.79156277  0.78610881  0.77916538     0.02390
C33         C  0.76626951  0.79680002  0.78959503     0.02390
C34         C  0.35302165  0.38919343  0.93991652     0.03230
C35         C  0.33641449  0.37375979  0.92028372    -0.12920
C36         C  0.34618322  0.34825602  0.90890968     0.00730
C37         C  0.37194977  0.33749486  0.91868156    -0.11440
C38         C  0.38858528  0.35302070  0.93808169     0.03220
C39         C  0.37996772  0.37963718  0.94659496    -0.10860
H40         H  0.31573544  0.38111532  0.91437613     0.08820
H41         H  0.37851151  0.31673989  0.91205553     0.06350
H42         H  0.39319088  0.39155764  0.96118658     0.06200
C43         C  0.91554883  0.38786990  0.37962341     0.03230
C44         C  0.89597526  0.37227512  0.36351368    -0.12920
C45         C  0.88485669  0.34701861  0.37415508     0.00730
C46         C  0.89452752  0.33684744  0.40037930    -0.11440
C47         C  0.91449381  0.35235413  0.41619354     0.03220
C48         C  0.92363476  0.37846675  0.40629686    -0.10860
H49         H  0.89001489  0.37933031  0.34254101     0.08820
H50         H  0.88712709  0.31670808  0.40796423     0.06350
H51         H  0.93926724  0.39034502  0.41831775     0.06200
C52         C  0.38814380  0.90589417  0.38141342     0.03230
C53         C  0.37319171  0.88314301  0.36962459    -0.12920
C54         C  0.34749146  0.87441482  0.38083595     0.00730
C55         C  0.33727845  0.88822786  0.40511204    -0.11440
C56         C  0.35299905  0.91019920  0.41800646     0.03220
C57         C  0.37849090  0.91837092  0.40615416    -0.10860
H58         H  0.38069718  0.87333759  0.35051891     0.08820
H59         H  0.31685215  0.88269926  0.41316885     0.06350
H60         H  0.38983153  0.93621346  0.41514795     0.06200
C61         C  0.84723509  0.84215263  0.41285791     0.03230
C62         C  0.87118782  0.82945516  0.42438438    -0.12920
C63         C  0.88919567  0.84522240  0.44188733     0.00730
C64         C  0.88426220  0.87383574  0.44605219    -0.11440
C65         C  0.85830614  0.88543118  0.43897827     0.03220
C66         C  0.84001259  0.86952122  0.42132894    -0.10860
H67         H  0.87547086  0.80748300  0.42012583     0.08820
H68         H  0.89997810  0.88618995  0.45726117     0.06350
H69         H  0.82013720  0.87800612  0.41430549     0.06200
C70         C  0.89681879  0.85934526  0.67299511     0.03230
C71         C  0.87952818  0.84431361  0.69135914    -0.12920
C72         C  0.85411410  0.85568036  0.70034951     0.00730
C73         C  0.84571515  0.88228121  0.69008734    -0.11440
C74         C  0.86289185  0.89724762  0.67114666     0.03220
C75         C  0.88882598  0.88599205  0.66374731    -0.10860
H76         H  0.88541323  0.82329235  0.69788763     0.08820
H77         H  0.82526180  0.89032741  0.69529568     0.06350
H78         H  0.90140664  0.89664054  0.64808586     0.06200
C79         C  0.85319266  0.36991890  0.87378290     0.03230
C80         C  0.84179910  0.38210343  0.89808461    -0.12920
C81         C  0.85638268  0.40366252  0.91268407     0.00730
C82         C  0.88275764  0.41224793  0.90339252    -0.11440
C83         C  0.89396041  0.40083778  0.87883930     0.03220
C84         C  0.87947094  0.37916930  0.86447570    -0.10860
H85         H  0.82077685  0.37636166  0.90435610     0.08820
H86         H  0.89283174  0.43051098  0.91306104     0.06350
H87         H  0.88748708  0.37130400  0.84467210     0.06200
C88         C  0.89876780  0.63727200  0.88968971     0.03230
C89         C  0.88614151  0.66020931  0.87583035    -0.12920
C90         C  0.85865390  0.66866742  0.88256163     0.00730
C91         C  0.84476818  0.65448340  0.90457440    -0.11440
C92         C  0.85772886  0.63213775  0.91912559     0.03220
C93         C  0.88475149  0.62406535  0.91179498    -0.10860
H94         H  0.89700548  0.67007709  0.85852179     0.08820
H95         H  0.82329811  0.65970590  0.90933505     0.06350
H96         H  0.89383008  0.60552283  0.92147865     0.06200
C97         C  0.15830852  0.85176650  0.43795898     0.03230
C98         C  0.16979508  0.87670953  0.44880608    -0.12920
C99         C  0.19546679  0.88683623  0.43953494     0.00730
C100        C  0.20997063  0.87198876  0.41867068    -0.11440
C101        C  0.19789255  0.84765125  0.40624734     0.03220
C102        C  0.17169570  0.83808913  0.41560948    -0.10860
H103        H  0.16015824  0.88693212  0.46669813     0.08820
H104        H  0.23070249  0.87893934  0.41264283     0.06350
H105        H  0.16278795  0.81880285  0.40696185     0.06200
C106        C  0.18673620  0.89673199  0.66623504     0.03230
C107        C  0.16329343  0.88295088  0.65495661    -0.12920
C108        C  0.15606979  0.85601499  0.66383105     0.00730
C109        C  0.17207868  0.84287407  0.68518903    -0.11440
C110        C  0.19464430  0.85743265  0.69880343     0.03220
C111        C  0.20071528  0.88514625  0.68969331    -0.10860
H112        H  0.15184766  0.89234952  0.63745624     0.08820
H113        H  0.16731012  0.82124889  0.69061458     0.06350
H114        H  0.21671439  0.89774402  0.70004586     0.06200
O115        O  0.99404339  0.74726827  0.60020679    -0.80030
O116        O  0.05153228  0.76080727  0.49041062    -0.80060
O117        O  0.99227016  0.72889531  0.53083364    -0.80060
O118        O  0.05416047  0.72676469  0.58088035    -0.80010
O119        O  0.99595756  0.75896948  0.49538159    -0.80130
O120        O  0.04664828  0.75931715  0.61268515    -0.80050
O121        O  0.05749311  0.72711589  0.52160474    -0.80030
O122        O  0.95664259  0.74400675  0.57195472    -0.80070
C123        C  0.96865389  0.73844359  0.59520687     1.09660
C124        C  0.06058218  0.73658754  0.49682914     1.09540
C125        C  0.98753129  0.73557477  0.50527379     1.09680
C126        C  0.05612515  0.73539499  0.60614100     1.09560
O127        O  0.04876516  0.81236993  0.58593880    -0.80030
O128        O  0.99660744  0.81399515  0.52173468    -0.80110
O129        O  0.97841574  0.79554454  0.58335931    -0.80050
O130        O  0.08567509  0.78027420  0.52544705    -0.80030
O131        O  0.05482370  0.81384837  0.51866984    -0.80080
O132        O  0.00596498  0.79876361  0.62145894    -0.80040
O133        O  0.08216999  0.78071707  0.58131324    -0.80000
O134        O  0.96544742  0.78153231  0.53069792    -0.80070
Co135      Co  0.02037136  0.78178176  0.58884847     1.51530
Co136      Co  0.02480003  0.78681827  0.50926231     1.51690
Co137      Co  0.98924955  0.76035403  0.55787105     1.51570
Co138      Co  0.06720248  0.75382288  0.55228357     1.51470
O139        O  0.02849651  0.77088310  0.54904886    -1.41970
C140        C  0.07415589  0.80487082  0.58930725     1.09580
C141        C  0.97174104  0.80495782  0.51995206     1.09670
C142        C  0.98290214  0.80419158  0.60908745     1.09610
C143        C  0.07925273  0.80433335  0.51565776     1.09590
C144        C  0.35395079  0.65248661  0.93733645     0.03230
C145        C  0.33779422  0.66885811  0.91867891    -0.12920
C146        C  0.34878077  0.69371231  0.90707740     0.00730
C147        C  0.37533366  0.70360857  0.91634568    -0.11440
C148        C  0.39188594  0.68763206  0.93526003     0.03220
C149        C  0.38146502  0.66128123  0.94389597    -0.10860
H150        H  0.31634939  0.66286143  0.91373691     0.08820
H151        H  0.38224919  0.72428435  0.90976802     0.06350
H152        H  0.39428597  0.64816047  0.95746053     0.06200
C153        C  0.39634535  0.90005628  0.71475215     0.03230
C154        C  0.38620134  0.87383469  0.72474251    -0.12920
C155        C  0.35874322  0.86399578  0.71789309     0.00730
C156        C  0.34296672  0.87983809  0.69819449    -0.11440
C157        C  0.35348579  0.90489743  0.68682272     0.03220
C158        C  0.37908670  0.91562538  0.69652271    -0.10860
H159        H  0.39967578  0.86142294  0.73821457     0.08820
H160        H  0.32204495  0.87362635  0.69214656     0.06350
H161        H  0.38531866  0.93641387  0.68965362     0.06200
C162        C  0.26037584  0.79116041  0.78176245     0.02390
C163        C  0.24832179  0.76533503  0.79146658     0.02390
C164        C  0.25905900  0.75287548  0.81664220     0.02390
C165        C  0.28320590  0.76425672  0.83060374     0.02390
C166        C  0.29617829  0.78907394  0.81951215     0.02390
C167        C  0.28889107  0.79681179  0.79092342     0.02390
C168        C  0.17315125  0.69554915  0.72173035     0.03230
C169        C  0.15553698  0.70771198  0.70124934    -0.12920
C170        C  0.13352800  0.69189678  0.68899694     0.00730
C171        C  0.12861919  0.66441238  0.69824406    -0.11440
C172        C  0.14572656  0.65179419  0.71886955     0.03220
C173        C  0.16907869  0.66720895  0.72932395    -0.10860
H174        H  0.15818292  0.72971031  0.69582065     0.08820
H175        H  0.11041056  0.65327248  0.68992667     0.06350
H176        H  0.18339716  0.65793701  0.74445889     0.06200
O177        O  0.96387675  0.54945478  0.78313925    -0.80030
O178        O  0.08092221  0.49876590  0.79122926    -0.80060
O179        O  0.05506276  0.56490824  0.75894456    -0.80060
O180        O  0.00518890  0.45636359  0.77752732    -0.80010
O181        O  0.08545992  0.55497514  0.79310799    -0.80130
O182        O  0.98107372  0.49443220  0.76719338    -0.80050
O183        O  0.04586283  0.49260854  0.76079011    -0.80030
O184        O  0.99694989  0.56283860  0.75537912    -0.80070
C185        C  0.97165466  0.56391044  0.76235627     1.09660
C186        C  0.07119807  0.48864004  0.76806200     1.09540
C187        C  0.07992735  0.56492801  0.76876450     1.09680
C188        C  0.98455934  0.46733906  0.76495012     1.09560
O189        O  0.95266118  0.50330146  0.81389423    -0.80030
O190        O  0.05407636  0.55697332  0.84497424    -0.80110
O191        O  0.99494271  0.58279566  0.81387270    -0.80050
O192        O  0.04580523  0.46701729  0.81423116    -0.80030
O193        O  0.05086631  0.49987025  0.84491757    -0.80080
O194        O  0.98559254  0.54407611  0.83784855    -0.80040
O195        O  0.99170777  0.48167491  0.82537346    -0.80000
O196        O  0.05162353  0.59011157  0.81338647    -0.80070
Co197      Co  0.98657591  0.52014386  0.80361415     1.51530
Co198      Co  0.06547222  0.52778917  0.81827940     1.51690
Co199      Co  0.02451140  0.57223872  0.78569608     1.51570
Co200      Co  0.01875326  0.49035231  0.79168565     1.51470
O201        O  0.02723265  0.53129205  0.79936989    -1.41970
C202        C  0.96464071  0.48293454  0.82584538     1.09580
C203        C  0.06008116  0.58156790  0.83726967     1.09670
C204        C  0.98305743  0.57039363  0.83436728     1.09610
C205        C  0.05630665  0.47519137  0.83740034     1.09590
C206        C  0.15705436  0.41788016  0.87607916     0.03230
C207        C  0.16602361  0.42426788  0.90379220    -0.12920
C208        C  0.18726639  0.40925127  0.91777433     0.00730
C209        C  0.20082101  0.38789877  0.90221748    -0.11440
C210        C  0.19424075  0.38307124  0.87348398     0.03220
C211        C  0.17231856  0.39805002  0.86055505    -0.10860
H212        H  0.15632163  0.44151135  0.91440386     0.08820
H213        H  0.21679532  0.37501111  0.91192021     0.06350
H214        H  0.16721403  0.39408800  0.83853291     0.06200
C215        C  0.19803716  0.63267869  0.91683051     0.03230
C216        C  0.21324399  0.65251004  0.90107559    -0.12920
C217        C  0.20122833  0.66428491  0.87653912     0.00730
C218        C  0.17429124  0.65581327  0.86763298    -0.11440
C219        C  0.15980930  0.63493683  0.88238290     0.03220
C220        C  0.17130734  0.62439904  0.90744602    -0.10860
H221        H  0.23413806  0.65884147  0.90786295     0.08820
H222        H  0.16500704  0.66492535  0.84887588     0.06350
H223        H  0.15958366  0.60892434  0.91934682     0.06200
C224        C  0.37647732  0.86242452  0.88031285     0.03230
C225        C  0.38887431  0.88783675  0.87114498    -0.12920
C226        C  0.40807751  0.90279662  0.88871804     0.00730
C227        C  0.41565596  0.89146968  0.91508387    -0.11440
C228        C  0.40526731  0.86546126  0.92369183     0.03220
C229        C  0.38474216  0.85184328  0.90715801    -0.10860
H230        H  0.38491122  0.89522618  0.84989304     0.08820
H231        H  0.43128106  0.90195560  0.92830605     0.06350
H232        H  0.37627669  0.83221442  0.91498814     0.06200
C233        C  0.64727287  0.89449154  0.87966958     0.03230
C234        C  0.66549293  0.87691013  0.86483691    -0.12920
C235        C  0.67616810  0.85230281  0.87743244     0.00730
C236        C  0.66682281  0.84463621  0.90454590    -0.11440
C237        C  0.64839546  0.86215669  0.91944869     0.03220
C238        C  0.64056017  0.88790702  0.90745953    -0.10860
H239        H  0.67050593  0.88188456  0.84316108     0.08820
H240        H  0.67245031  0.82429871  0.91308699     0.06350
H241        H  0.62600166  0.90126868  0.91851492     0.06200
C242        C  0.14046534  0.64609832  0.39002040     0.03230
C243        C  0.13320703  0.65874625  0.41561621    -0.12920
C244        C  0.13916209  0.68699694  0.42050292     0.00730
C245        C  0.15782179  0.70115588  0.40293594    -0.11440
C246        C  0.17197656  0.68657063  0.38137134     0.03220
C247        C  0.16081350  0.65987175  0.37331788    -0.10860
H248        H  0.11953428  0.64796011  0.43015420     0.08820
H249        H  0.16111234  0.72349329  0.40624931     0.06350
H250        H  0.16678875  0.65056225  0.35365407     0.06200
C251        C  0.28107114  0.75828927  0.27555482     0.02390
C252        C  0.29029236  0.78619327  0.28406182     0.02390
C253        C  0.28129414  0.79609606  0.31130620     0.02390
C254        C  0.26095583  0.78037913  0.32670034     0.02390
C255        C  0.25095694  0.75375922  0.31623297     0.02390
C256        C  0.25505444  0.74855372  0.28673406     0.02390
C257        C  0.35855099  0.69522524  0.20320116     0.03230
C258        C  0.35177251  0.66749421  0.19413394    -0.12920
C259        C  0.36468663  0.65543383  0.17067347     0.00730
C260        C  0.38714830  0.66929447  0.15842744    -0.11440
C261        C  0.39498947  0.69626764  0.16734696     0.03220
C262        C  0.38023267  0.70962765  0.18910449    -0.10860
H263        H  0.33504020  0.65568151  0.20384779     0.08820
H264        H  0.39660546  0.66040334  0.13973267     0.06350
H265        H  0.38472864  0.73153602  0.19373525     0.06200
O266        O  0.22955666  0.48840062  0.02078101    -0.80030
O267        O  0.26414978  0.54883706  0.11507623    -0.80060
O268        O  0.23466687  0.48750384  0.07617957    -0.80060
O269        O  0.24552417  0.59272114  0.03970165    -0.80010
O270        O  0.26306820  0.49254922  0.11270028    -0.80130
O271        O  0.23011646  0.55132356  0.02498156    -0.80050
O272        O  0.23355788  0.55485502  0.08130909    -0.80030
O273        O  0.25124896  0.45023593  0.03603971    -0.80070
C274        C  0.23372052  0.46137587  0.01922357     1.09660
C275        C  0.24126211  0.55912651  0.10669923     1.09540
C276        C  0.23994334  0.48407147  0.10214717     1.09680
C277        C  0.23265212  0.57815634  0.02080222     1.09560
O278        O  0.28185647  0.54991496  0.99446871    -0.80030
O279        O  0.31919306  0.49273781  0.09018174    -0.80110
O280        O  0.30155381  0.47623283  0.02991669    -0.80050
O281        O  0.28669189  0.58321702  0.08239624    -0.80030
O282        O  0.31854235  0.55160887  0.09221912    -0.80080
O283        O  0.28218197  0.49380498  0.99310897    -0.80040
O284        O  0.29723771  0.57138638  0.03156302    -0.80000
O285        O  0.28785996  0.46067593  0.08003351    -0.80070
Co286      Co  0.25793624  0.52105307  0.01335651     1.51530
Co287      Co  0.29075084  0.52128577  0.09905904     1.51690
Co288      Co  0.26742072  0.48353221  0.05132810     1.51570
Co289      Co  0.26467278  0.56058551  0.05417112     1.51470
O290        O  0.27912769  0.52219710  0.05641618    -1.41970
C291        C  0.29792282  0.56802829  0.00544441     1.09580
C292        C  0.31105535  0.46741261  0.09147362     1.09670
C293        C  0.30041869  0.47805235  0.00362775     1.09610
C294        C  0.30973640  0.57667875  0.09423317     1.09590
O295        O  0.99188798  0.49683943  0.34471979    -0.80030
O296        O  0.06046198  0.54036985  0.34117861    -0.80060
O297        O  0.05184634  0.47841864  0.32215775    -0.80060
O298        O  0.00005796  0.58913430  0.31777294    -0.80010
O299        O  0.09263104  0.50011652  0.31670336    -0.80130
O300        O  0.99382421  0.55521632  0.34850355    -0.80050
O301        O  0.05546694  0.57976016  0.31670841    -0.80030
O302        O  0.99826761  0.46725679  0.31019616    -0.80070
C303        C  0.98922358  0.47226082  0.33452380     1.09660
C304        C  0.06492751  0.56646243  0.33813491     1.09540
C305        C  0.07863736  0.47989529  0.32681352     1.09680
C306        C  0.99161804  0.58072788  0.34167055     1.09560
O307        O  0.96290558  0.55883743  0.29570852    -0.80030
O308        O  0.06319242  0.49578732  0.26814368    -0.80110
O309        O  0.99540656  0.49487497  0.25884115    -0.80050
O310        O  0.04933496  0.55871589  0.25854093    -0.80030
O311        O  0.08290293  0.54713761  0.28676720    -0.80080
O312        O  0.96354819  0.50237178  0.29121557    -0.80040
O313        O  0.99323388  0.56584990  0.26170577    -0.80000
O314        O  0.03753718  0.45709111  0.27134520    -0.80070
Co315      Co  0.98076188  0.52837526  0.31960518     1.51530
Co316      Co  0.05904376  0.51820782  0.30607981     1.51690
Co317      Co  0.02484622  0.49051655  0.28869189     1.51570
Co318      Co  0.02436822  0.57083079  0.28867648     1.51470
O319        O  0.01892747  0.53032956  0.30116680    -1.41970
C320        C  0.96901346  0.56847261  0.27145233     1.09580
C321        C  0.05930936  0.46934055  0.26235227     1.09670
C322        C  0.97036280  0.49206284  0.26754450     1.09610
C323        C  0.07476200  0.56057155  0.26524243     1.09590
C324        C  0.18654895  0.40788986  0.17910556     0.03230
C325        C  0.15963503  0.41473749  0.18767155    -0.12920
C326        C  0.14927844  0.40522305  0.21342199     0.00730
C327        C  0.16479039  0.38554608  0.22909324    -0.11440
C328        C  0.19090509  0.37621528  0.21940541     0.03220
C329        C  0.20199241  0.38797778  0.19457689    -0.10860
H330        H  0.14794942  0.43030030  0.17573566     0.08820
H331        H  0.15731177  0.37856436  0.24941850     0.06350
H332        H  0.22319424  0.38311060  0.18846801     0.06200
C333        C  0.85328534  0.41349358  0.18149593     0.03230
C334        C  0.87937066  0.42316365  0.19124496    -0.12920
C335        C  0.89107973  0.41310107  0.21640531     0.00730
C336        C  0.87699987  0.39165010  0.23126352    -0.11440
C337        C  0.85087586  0.38122553  0.22151523     0.03220
C338        C  0.83889322  0.39266548  0.19679144    -0.10860
H339        H  0.88915849  0.44087101  0.18073760     0.08820
H340        H  0.88555313  0.38427131  0.25120860     0.06350
H341        H  0.81819076  0.38587759  0.18984396     0.06200
C342        C  0.87996840  0.63004247  0.21748560     0.03230
C343        C  0.86543441  0.61679883  0.19536044    -0.12920
C344        C  0.84032537  0.62746326  0.18486317     0.00730
C345        C  0.82783028  0.65042909  0.19804308    -0.11440
C346        C  0.84110173  0.66297487  0.22145989     0.03220
C347        C  0.86767970  0.65385731  0.23014024    -0.10860
H348        H  0.87308507  0.59751125  0.18631017     0.08820
H349        H  0.80766035  0.65793537  0.19068644     0.06350
H350        H  0.87809116  0.66521805  0.24716094     0.06200
O351        O  0.77606750  0.54650218  0.98514763    -0.80030
O352        O  0.77866801  0.49578226  0.10232493    -0.80060
O353        O  0.79040427  0.58714822  0.06280648    -0.80060
O354        O  0.81033955  0.48465518  0.01240815    -0.80010
O355        O  0.79219768  0.54721280  0.08701161    -0.80130
O356        O  0.77682616  0.49024464  0.98061336    -0.80050
O357        O  0.81106295  0.48674536  0.07199393    -0.80030
O358        O  0.80644539  0.55169765  0.02028159    -0.80070
C359        C  0.79953307  0.55579529  0.99459601     1.09660
C360        C  0.80223289  0.48547376  0.09709569     1.09540
C361        C  0.79857423  0.57363088  0.08441602     1.09680
C362        C  0.80118258  0.48164461  0.98730547     1.09560
O363        O  0.72397556  0.48565156  0.00846816    -0.80030
O364        O  0.74257955  0.53705553  0.11238303    -0.80110
O365        O  0.75286574  0.57657280  0.02083419    -0.80050
O366        O  0.75663181  0.45994700  0.07033649    -0.80030
O367        O  0.72573459  0.49377775  0.07680960    -0.80080
O368        O  0.72178155  0.54372446  0.01196173    -0.80040
O369        O  0.75790034  0.45519146  0.01421635    -0.80000
O370        O  0.74098354  0.56301644  0.07359441    -0.80070
Co371      Co  0.74981022  0.51642854  0.99914795     1.51530
Co372      Co  0.75674228  0.52190491  0.07844602     1.51690
Co373      Co  0.77541055  0.55359035  0.04752746     1.51570
Co374      Co  0.78370818  0.47442792  0.04209623     1.51470
O375        O  0.76628721  0.51325959  0.03867043    -1.41970
C376        C  0.73356863  0.46123160  0.00494123     1.09580
C377        C  0.73545409  0.55949709  0.10006481     1.09670
C378        C  0.72931690  0.56919918  0.01077806     1.09610
C379        C  0.73374964  0.46852909  0.08075600     1.09590
C380        C  0.69236728  0.91646599  0.40908811     0.03230
C381        C  0.66557431  0.92052682  0.39800614    -0.12920
C382        C  0.65628348  0.90553253  0.37428769     0.00730
C383        C  0.67363315  0.88536801  0.36208442    -0.11440
C384        C  0.70047599  0.88046869  0.37335879     0.03220
C385        C  0.71006856  0.89634959  0.39685236    -0.10860
H386        H  0.65262079  0.93699703  0.40671927     0.08820
H387        H  0.66669826  0.87434126  0.34310705     0.06350
H388        H  0.73097083  0.89318365  0.40539883     0.06200
C389        C  0.90999504  0.69166587  0.42215753     0.03230
C390        C  0.91533154  0.66431436  0.41310580    -0.12920
C391        C  0.91033128  0.65674272  0.38519561     0.00730
C392        C  0.89292912  0.67353001  0.36811200    -0.11440
C393        C  0.88191132  0.69876212  0.37904877     0.03220
C394        C  0.89198442  0.70863476  0.40562639    -0.10860
H395        H  0.92859541  0.65085490  0.42598333     0.08820
H396        H  0.88853269  0.66735962  0.34643194     0.06350
H397        H  0.88692760  0.72972590  0.41251371     0.06200
C398        C  0.79804824  0.75936519  0.31187453     0.02390
C399        C  0.78633445  0.78402812  0.32371289     0.02390
C400        C  0.76175386  0.79596446  0.31189689     0.02390
C401        C  0.74945614  0.78417364  0.28718501     0.02390
C402        C  0.76032228  0.75911117  0.27578453     0.02390
C403        C  0.78531280  0.74752304  0.28718703     0.02390
C404        C  0.69439702  0.69440461  0.19389917     0.03230
C405        C  0.70514607  0.66897097  0.18366307    -0.12920
C406        C  0.69184358  0.65481868  0.16093306     0.00730
C407        C  0.66750930  0.66620767  0.14896913    -0.11440
C408        C  0.65581423  0.69097208  0.15952811     0.03220
C409        C  0.66920726  0.70479698  0.18249378    -0.10860
H410        H  0.72421178  0.66069034  0.19297165     0.08820
H411        H  0.65824604  0.65626628  0.13038740     0.06350
H412        H  0.66066159  0.72407001  0.19093713     0.06200
O413        O  0.58873667  0.78885201  0.01524497    -0.80030
O414        O  0.48356111  0.80031945  0.07616637    -0.80060
O415        O  0.49864944  0.81683744  0.01097133    -0.80060
O416        O  0.54701114  0.81217587  0.07895338    -0.80010
O417        O  0.46615439  0.78675776  0.01998787    -0.80130
O418        O  0.58420777  0.78606628  0.07253572    -0.80050
O419        O  0.50881001  0.78996006  0.11414740    -0.80030
O420        O  0.55461223  0.81848986  0.00883339    -0.80070
C421        C  0.57994210  0.81233247  0.00612348     1.09660
C422        C  0.48732549  0.80118236  0.10350340     1.09540
C423        C  0.47359299  0.80920120  0.00809663     1.09680
C424        C  0.57256498  0.80721192  0.08391944     1.09560
O425        O  0.56157438  0.72860669  0.06692734    -0.80030
O426        O  0.49162387  0.73374349  0.02185592    -0.80110
O427        O  0.55557093  0.76530494  0.97866729    -0.80050
O428        O  0.49598167  0.74331338  0.08591209    -0.80030
O429        O  0.45678147  0.75285111  0.06287983    -0.80080
O430        O  0.56462363  0.73276011  0.01013595    -0.80040
O431        O  0.55081261  0.75662651  0.10098853    -0.80000
O432        O  0.49786135  0.76066131  0.98464137    -0.80070
Co433      Co  0.57193030  0.75948679  0.04109201     1.51530
Co434      Co  0.49052716  0.76603542  0.04806390     1.51690
Co435      Co  0.52677399  0.78963728  0.99839885     1.51570
Co436      Co  0.52214582  0.77872982  0.07915653     1.51470
O437        O  0.53112732  0.77310068  0.03807320    -1.41970
C438        C  0.56346713  0.73502038  0.09260440     1.09580
C439        C  0.48722403  0.73866987  0.99587864     1.09670
C440        C  0.56660835  0.74192796  0.98538470     1.09610
C441        C  0.46882844  0.74185956  0.08396109     1.09590
C442        C  0.41234678  0.85100125  0.18371844     0.03230
C443        C  0.39119093  0.83622065  0.19792730    -0.12920
C444        C  0.37552937  0.84914204  0.21944800     0.00730
C445        C  0.38399942  0.87678734  0.22807399    -0.11440
C446        C  0.40734398  0.89020573  0.21604813     0.03220
C447        C  0.42048314  0.87768971  0.19317936    -0.10860
H448        H  0.38773584  0.81439576  0.19238819     0.08820
H449        H  0.37334627  0.88799737  0.24454788     0.06350
H450        H  0.43835737  0.88810482  0.18378739     0.06200
C451        C  0.62919130  0.88193744  0.22144298     0.03230
C452        C  0.64903355  0.86643976  0.23700317    -0.12920
C453        C  0.66150273  0.84254429  0.22503108     0.00730
C454        C  0.65324157  0.83393139  0.19756917    -0.11440
C455        C  0.63289325  0.84919238  0.18224187     0.03220
C456        C  0.62173146  0.87351063  0.19405871    -0.10860
H457        H  0.65450768  0.87278940  0.25840752     0.08820
H458        H  0.66184790  0.81491743  0.18858731     0.06350
H459        H  0.60528740  0.88464054  0.18278330     0.06200
C460        C  0.69367151  0.35085553  0.19644849     0.03230
C461        C  0.70380562  0.37586478  0.18432841    -0.12920
C462        C  0.68868490  0.38937667  0.16243030     0.00730
C463        C  0.66189805  0.37884787  0.15518366    -0.11440
C464        C  0.65084114  0.35500050  0.16836200     0.03220
C465        C  0.66696338  0.34075893  0.18867541    -0.10860
H466        H  0.72378933  0.38414136  0.19163969     0.08820
H467        H  0.65030162  0.38772294  0.13755265     0.06350
H468        H  0.65934569  0.32107169  0.19730504     0.06200
C469        C  0.78841391  0.29736043  0.28554998     0.02390
C470        C  0.80127239  0.28428080  0.30938289     0.02390
C471        C  0.78941106  0.25939284  0.32094190     0.02390
C472        C  0.76364473  0.24895785  0.30996460     0.02390
C473        C  0.75136274  0.26123611  0.28572282     0.02390
C474        C  0.76262922  0.28647308  0.27463720     0.02390
C475        C  0.65566800  0.13994488  0.38061584     0.03230
C476        C  0.67007048  0.15984640  0.36416831    -0.12920
C477        C  0.69533439  0.17184814  0.37429770     0.00730
C478        C  0.70620021  0.16356304  0.40060488    -0.11440
C479        C  0.69223080  0.14327498  0.41668683     0.03220
C480        C  0.66647494  0.13257381  0.40718516    -0.10860
H481        H  0.66243195  0.16495787  0.34314957     0.08820
H482        H  0.72670567  0.17110005  0.40745557     0.06350
H483        H  0.65635188  0.11598385  0.41908307     0.06200
O484        O  0.49115293  0.99143949  0.26144279    -0.80030
O485        O  0.54603887  0.05543621  0.26240241    -0.80060
O486        O  0.48864298  0.05208246  0.26257388    -0.80060
O487        O  0.55150656  0.99165860  0.25952126    -0.80010
O488        O  0.50666088  0.09297119  0.27774333    -0.80130
O489        O  0.53006516  0.95248471  0.27344714    -0.80050
O490        O  0.58790733  0.03710415  0.27024982    -0.80030
O491        O  0.45006470  0.00904863  0.27278212    -0.80070
C492        C  0.46394479  0.98976270  0.26081507     1.09660
C493        C  0.57308360  0.05712516  0.26056948     1.09540
C494        C  0.48731639  0.07946638  0.26457981     1.09680
C495        C  0.55023338  0.96409486  0.26078591     1.09560
O496        O  0.54636790  0.97025300  0.32427456    -0.80030
O497        O  0.49536107  0.07245725  0.32883560    -0.80110
O498        O  0.46853095  0.99783932  0.32524222    -0.80050
O499        O  0.57276202  0.04523950  0.32386391    -0.80030
O500        O  0.54772707  0.08238516  0.31764905    -0.80080
O501        O  0.49266242  0.96115301  0.31396753    -0.80040
O502        O  0.58190529  0.99444149  0.30961806    -0.80000
O503        O  0.45899509  0.04987869  0.31298828    -0.80070
Co504      Co  0.52023046  0.98383960  0.29371858     1.51530
Co505      Co  0.51922971  0.06087683  0.29635469     1.51690
Co506      Co  0.48170470  0.02212327  0.29389065     1.51570
Co507      Co  0.55800328  0.02198855  0.29177526     1.51470
O508        O  0.52049731  0.02174480  0.31139666    -1.41970
C509        C  0.57256732  0.97385906  0.32297229     1.09580
C510        C  0.46909250  0.06947946  0.32765382     1.09670
C511        C  0.47286978  0.97185928  0.32704840     1.09610
C512        C  0.56858970  0.07086650  0.32886270     1.09590
O513        O  0.49654956  0.30670034  0.01472921    -0.80030
O514        O  0.53742773  0.29309554  0.11853965    -0.80060
O515        O  0.46206443  0.27738007  0.07394427    -0.80060
O516        O  0.55398733  0.30644592  0.01676682    -0.80010
O517        O  0.49678954  0.30724234  0.07896197    -0.80130
O518        O  0.53570737  0.29132269  0.97624377    -0.80050
O519        O  0.55655289  0.30691228  0.07879483    -0.80030
O520        O  0.46165724  0.27707626  0.01864483    -0.80070
C521        C  0.47078917  0.30089637  0.01111266     1.09660
C522        C  0.55778667  0.30487911  0.10603678     1.09540
C523        C  0.47126444  0.30097021  0.08259054     1.09680
C524        C  0.55551081  0.30387771  0.98952403     1.09560
O525        O  0.54216712  0.23955429  0.99759180    -0.80030
O526        O  0.49251328  0.25406730  0.10850062    -0.80110
O527        O  0.48269660  0.22102422  0.01665217    -0.80050
O528        O  0.57812535  0.25032487  0.07571354    -0.80030
O529        O  0.54079450  0.24060812  0.09821975    -0.80080
O530        O  0.49264811  0.25351823  0.98575704    -0.80040
O531        O  0.57941476  0.25191753  0.02010169    -0.80000
O532        O  0.48293947  0.22150216  0.07642687    -0.80070
Co533      Co  0.52150740  0.27369475  0.00881360     1.51530
Co534      Co  0.52143692  0.27454907  0.08601612     1.51690
Co535      Co  0.47581385  0.24932569  0.04646466     1.51570
Co536      Co  0.56191962  0.27701077  0.04779023     1.51470
O537        O  0.51814086  0.25969139  0.04737721    -1.41970
C538        C  0.56802359  0.23743210  0.00112522     1.09580
C539        C  0.48099643  0.23078206  0.10146378     1.09670
C540        C  0.48065404  0.23046950  0.99167936     1.09610
C541        C  0.56641832  0.23796559  0.09563912     1.09590
C542        C  0.40556594  0.18615133  0.18380450     0.03230
C543        C  0.41359214  0.16089297  0.19593119    -0.12920
C544        C  0.40261234  0.15241947  0.22151842     0.00730
C545        C  0.38116572  0.16825575  0.23373916    -0.11440
C546        C  0.36899279  0.19152190  0.21940632     0.03220
C547        C  0.38237557  0.20060574  0.19433372    -0.10860
H548        H  0.43121175  0.14966235  0.18721946     0.08820
H549        H  0.37529862  0.16290328  0.25495398     0.06350
H550        H  0.37623063  0.21940571  0.18331124     0.06200
C551        C  0.39299413  0.14627834  0.87691586     0.03230
C552        C  0.40572658  0.15576038  0.90199433    -0.12920
C553        C  0.39980426  0.18244108  0.91282642     0.00730
C554        C  0.37968087  0.19917910  0.89915778    -0.11440
C555        C  0.36636320  0.18970127  0.87430364     0.03220
C556        C  0.37318181  0.16327255  0.86306689    -0.10860
H557        H  0.42278905  0.14374203  0.91115214     0.08820
H558        H  0.37552952  0.22019969  0.90696736     0.06350
H559        H  0.36449325  0.15677056  0.84276872     0.06200
C560        C  0.63864662  0.18432928  0.91796567     0.03230
C561        C  0.63026129  0.15811983  0.90756090    -0.12920
C562        C  0.63836024  0.14914696  0.88097578     0.00730
C563        C  0.65791296  0.16509009  0.86587371    -0.11440
C564        C  0.67109683  0.18923166  0.87807561     0.03220
C565        C  0.65989049  0.19925808  0.90394154    -0.10860
H566        H  0.61471012  0.14594790  0.91883925     0.08820
H567        H  0.66141995  0.15915138  0.84421507     0.06350
H568        H  0.66632701  0.21907133  0.91301862     0.06200
O569        O  0.59054712  0.99809958  0.78425995    -0.80030
O570        O  0.48754054  0.04942242  0.75109531    -0.80060
O571        O  0.49652721  0.96218477  0.78882212    -0.80060
O572        O  0.55226288  0.07806775  0.78572439    -0.80010
O573        O  0.48872334  0.99124528  0.75482044    -0.80130
O574        O  0.55981054  0.03973754  0.76039106    -0.80050
O575        O  0.49569452  0.08411259  0.78102544    -0.80030
O576        O  0.55090793  0.97569989  0.77416116    -0.80070
C577        C  0.57801314  0.97734824  0.77302117     1.09660
C578        C  0.48479618  0.07494310  0.75809600     1.09540
C579        C  0.48617886  0.96676033  0.76472546     1.09680
C580        C  0.56413319  0.06571642  0.76527413     1.09560
O581        O  0.58004734  0.04383626  0.81610217    -0.80030
O582        O  0.46297029  0.99596264  0.81082342    -0.80110
O583        O  0.53815636  0.95292942  0.82405338    -0.80050
O584        O  0.48888112  0.06181419  0.83698441    -0.80030
O585        O  0.45819537  0.05250714  0.80327075    -0.80080
O586        O  0.56248686  0.99164426  0.83100484    -0.80040
O587        O  0.54527352  0.05498024  0.84223202    -0.80000
O588        O  0.49948578  0.99259594  0.83981123    -0.80070
Co589      Co  0.55733892  0.01553291  0.79405085     1.51530
Co590      Co  0.47710733  0.02223471  0.78041383     1.51690
Co591      Co  0.52488728  0.98680824  0.80815578     1.51570
Co592      Co  0.52046662  0.06719426  0.81121563     1.51470
O593        O  0.51665592  0.02668567  0.79736524    -1.41970
C594        C  0.57084618  0.05731106  0.83689930     1.09580
C595        C  0.47362932  0.98875965  0.83466663     1.09670
C596        C  0.56013228  0.96463978  0.83350974     1.09610
C597        C  0.46458306  0.06419187  0.82661732     1.09590
C598        C  0.68240732  0.38263259  0.92638395     0.03230
C599        C  0.66019329  0.36832549  0.93841566    -0.12920
C600        C  0.65019206  0.34325760  0.92672825     0.00730
C601        C  0.66319058  0.33172935  0.90296524    -0.11440
C602        C  0.68453306  0.34682655  0.88884506     0.03220
C603        C  0.69303398  0.37314438  0.90064517    -0.10860
H604        H  0.65135475  0.37607773  0.95791022     0.08820
H605        H  0.65711955  0.31068854  0.89665773     0.06350
H606        H  0.70860515  0.38631761  0.89091737     0.06200
C607        C  0.90723050  0.38653643  0.71560303     0.03230
C608        C  0.88978861  0.36897311  0.73142505    -0.12920
C609        C  0.88022031  0.34330941  0.71998656     0.00730
C610        C  0.89009703  0.33432273  0.69362247    -0.11440
C611        C  0.90819070  0.35173412  0.67796539     0.03220
C612        C  0.91418746  0.37888845  0.68815846    -0.10860
H613        H  0.88434290  0.37487949  0.75277852     0.08820
H614        H  0.88436260  0.31352188  0.68595893     0.06350
H615        H  0.92708620  0.39312935  0.67602943     0.06200
C616        C  0.78332852  0.29491173  0.80490835     0.02390
C617        C  0.75669662  0.28525089  0.81428321     0.02390
C618        C  0.74983227  0.25620073  0.80917814     0.02390
C619        C  0.75993691  0.24435499  0.78322462     0.02390
C620        C  0.78326815  0.25714094  0.76971637     0.02390
C621        C  0.79520623  0.28205840  0.78109059     0.02390
C622        C  0.68958782  0.16682319  0.71755043     0.03230
C623        C  0.69826607  0.15775569  0.69078004    -0.12920
C624        C  0.68606259  0.13371937  0.67748333     0.00730
C625        C  0.66439299  0.11986910  0.69176844    -0.11440
C626        C  0.65322142  0.13094026  0.71648505     0.03220
C627        C  0.66619354  0.15403233  0.72982621    -0.10860
H628        H  0.71512338  0.16936040  0.68113494     0.08820
H629        H  0.65647801  0.09968733  0.68463680     0.06350
H630        H  0.65911663  0.16093389  0.75034605     0.06200
O631        O  0.81139775  0.00450305  0.59616342    -0.80030
O632        O  0.81080805  0.04310290  0.50678072    -0.80060
O633        O  0.80354723  0.96737459  0.52405864    -0.80060
O634        O  0.79913955  0.06257187  0.58351253    -0.80010
O635        O  0.78926570  0.99370764  0.48791670    -0.80130
O636        O  0.78161788  0.04501343  0.62284148    -0.80050
O637        O  0.79540296  0.07860734  0.52995266    -0.80030
O638        O  0.79386146  0.96408082  0.58133620    -0.80070
C639        C  0.81142468  0.97774579  0.59601552     1.09660
C640        C  0.81207074  0.06913054  0.51222942     1.09540
C641        C  0.80461692  0.97436810  0.49811566     1.09680
C642        C  0.79834524  0.06186834  0.61087306     1.09560
O643        O  0.73957829  0.05026931  0.58489848    -0.80030
O644        O  0.73391648  0.00872430  0.50601445    -0.80110
O645        O  0.73638728  0.97280451  0.57125148    -0.80050
O646        O  0.74196460  0.06092664  0.51610105    -0.80030
O647        O  0.76351207  0.04574707  0.47725168    -0.80080
O648        O  0.75442692  0.99687350  0.60699419    -0.80040
O649        O  0.75361021  0.09000353  0.56507447    -0.80000
O650        O  0.74680854  0.96601947  0.51452692    -0.80070
Co651      Co  0.77620342  0.02640309  0.58759258     1.51530
Co652      Co  0.77262806  0.02564991  0.50916180     1.51690
Co653      Co  0.77040026  0.97109609  0.54795087     1.51570
Co654      Co  0.76879251  0.05605716  0.55162829     1.51470
O655        O  0.77793806  0.01355758  0.54712347    -1.41970
C656        C  0.73876661  0.07757768  0.58322141     1.09580
C657        C  0.73116927  0.98270611  0.50179657     1.09670
C658        C  0.73781267  0.97822216  0.59738944     1.09610
C659        C  0.74702543  0.06293785  0.48896467     1.09590
C660        C  0.85583554  0.15763513  0.44138708     0.03230
C661        C  0.83954536  0.17076241  0.42019410    -0.12920
C662        C  0.84985472  0.19494909  0.40643769     0.00730
C663        C  0.87684492  0.20512367  0.41334207    -0.11440
C664        C  0.89287417  0.19280741  0.43518753     0.03220
C665        C  0.88207257  0.16901476  0.44878532    -0.10860
H666        H  0.81869879  0.16287403  0.41519300     0.08820
H667        H  0.88502023  0.22301611  0.40190352     0.06350
H668        H  0.89369163  0.15968105  0.46616585     0.06200
C669        C  0.89379052  0.19216865  0.66164912     0.03230
C670        C  0.87657406  0.20959376  0.67768917    -0.12920
C671        C  0.85032869  0.19963584  0.68645711     0.00730
C672        C  0.84074377  0.17309599  0.67724825    -0.11440
C673        C  0.85824379  0.15496821  0.66187542     0.03220
C674        C  0.88552258  0.16434214  0.65608976    -0.10860
H675        H  0.88333634  0.23082216  0.68300060     0.08820
H676        H  0.81966280  0.16667320  0.68251323     0.06350
H677        H  0.90039070  0.15060569  0.64618780     0.06200
C678        C  0.35289540  0.13449390  0.68747502     0.03230
C679        C  0.38093222  0.13158915  0.69547803    -0.12920
C680        C  0.39081433  0.14142462  0.72149736     0.00730
C681        C  0.37387634  0.15923589  0.73767699    -0.11440
C682        C  0.34643554  0.16555533  0.72818301     0.03220
C683        C  0.33562547  0.15205572  0.70369368    -0.10860
H684        H  0.39450149  0.11840052  0.68297493     0.08820
H685        H  0.38155028  0.16733258  0.75778979     0.06350
H686        H  0.31385623  0.15490030  0.69774547     0.06200
C687        C  0.28101479  0.28741774  0.82298555     0.02390
C688        C  0.25617913  0.29886051  0.81103238     0.02390
C689        C  0.24428857  0.28684081  0.78599352     0.02390
C690        C  0.25619921  0.26219389  0.77414323     0.02390
C691        C  0.28136447  0.25122474  0.78572583     0.02390
C692        C  0.29284204  0.26299291  0.81089908     0.02390
O693        O  0.31516939  0.98863520  0.52828726    -0.80030
O694        O  0.32052189  0.05622371  0.57542911    -0.80060
O695        O  0.28475075  0.05037851  0.48539186    -0.80060
O696        O  0.29884742  0.99580718  0.59712225    -0.80010
O697        O  0.31890640  0.05722233  0.51614537    -0.80130
O698        O  0.29652279  0.95605487  0.57282384    -0.80050
O699        O  0.28816968  0.05005162  0.60699333    -0.80030
O700        O  0.28564078  0.99457569  0.49201260    -0.80070
C701        C  0.30867180  0.98539585  0.50215370     1.09660
C702        C  0.31202597  0.05932749  0.60038372     1.09540
C703        C  0.30865992  0.06065496  0.49160351     1.09680
C704        C  0.30353009  0.96897469  0.59528907     1.09560
O705        O  0.24778792  0.98265372  0.58066955    -0.80030
O706        O  0.26654359  0.08570722  0.51878166    -0.80110
O707        O  0.23073444  0.99552535  0.51732391    -0.80050
O708        O  0.23505412  0.05052196  0.57980144    -0.80030
O709        O  0.26676791  0.08396777  0.57421937    -0.80080
O710        O  0.26241282  0.96506141  0.52899058    -0.80040
O711        O  0.24949434  0.01018500  0.61861119    -0.80000
O712        O  0.23220227  0.05504022  0.51208336    -0.80070
Co713      Co  0.28367185  0.98933609  0.55549548     1.51530
Co714      Co  0.29308622  0.06792643  0.54618160     1.51690
Co715      Co  0.25856030  0.02397481  0.50461994     1.51570
Co716      Co  0.26537869  0.02249827  0.58465452     1.51470
O717        O  0.27554199  0.02880955  0.54422482    -1.41970
C718        C  0.24081253  0.98783915  0.60663043     1.09580
C719        C  0.24213857  0.07980573  0.50945935     1.09670
C720        C  0.23938334  0.97038932  0.51706977     1.09610
C721        C  0.24258046  0.07619394  0.58208179     1.09590
O722        O  0.99440603  0.22976709  0.51736101    -0.80030
O723        O  0.05257084  0.23030544  0.58198450    -0.80060
O724        O  0.05164968  0.26348493  0.49125749    -0.80060
O725        O  0.99467275  0.26144190  0.60869118    -0.80010
O726        O  0.05390866  0.22987969  0.52280306    -0.80130
O727        O  0.99346906  0.22814890  0.57654523    -0.80050
O728        O  0.04865783  0.26484158  0.61191806    -0.80030
O729        O  0.99746605  0.26501140  0.48821686    -0.80070
C730        C  0.98966183  0.23999202  0.49319437     1.09660
C731        C  0.05627323  0.23992790  0.60668436     1.09540
C732        C  0.05905117  0.23883577  0.49827628     1.09680
C733        C  0.98787069  0.23657671  0.60116252     1.09560
O734        O  0.96177791  0.27996712  0.57541575    -0.80030
O735        O  0.08441087  0.28282880  0.52514240    -0.80110
O736        O  0.99546545  0.31645574  0.52105416    -0.80050
O737        O  0.04986019  0.31710223  0.58033018    -0.80030
O738        O  0.08201183  0.28473414  0.58059436    -0.80080
O739        O  0.96384434  0.28289863  0.52053923    -0.80040
O740        O  0.99177079  0.31448007  0.57750299    -0.80000
O741        O  0.05355808  0.31603668  0.52365383    -0.80070
Co742      Co  0.98203706  0.25535223  0.54761596     1.51530
Co743      Co  0.06457864  0.25702533  0.55252863     1.51690
Co744      Co  0.02449579  0.29009106  0.50952451     1.51570
Co745      Co  0.02133850  0.28935811  0.59104203     1.51470
O746        O  0.02312051  0.27248261  0.55011851    -1.41970
C747        C  0.96780006  0.30488488  0.58305768     1.09580
C748        C  0.07751040  0.30733584  0.51734544     1.09670
C749        C  0.97122557  0.30782562  0.51419091     1.09610
C750        C  0.07436408  0.30951828  0.58698844     1.09590
C751        C  0.15209511  0.19616408  0.43533644     0.03230
C752        C  0.16267863  0.17036235  0.44455404    -0.12920
C753        C  0.18865051  0.16086152  0.43566478     0.00730
C754        C  0.20332056  0.17637357  0.41536646    -0.11440
C755        C  0.19223897  0.20143367  0.40436297     0.03220
C756        C  0.16649883  0.21140984  0.41452701    -0.10860
H757        H  0.15188224  0.15903895  0.46105744     0.08820
H758        H  0.22379838  0.16941831  0.40880553     0.06350
H759        H  0.15860182  0.23155444  0.40746615     0.06200
C760        C  0.13031946  0.36054071  0.68415647     0.03230
C761        C  0.12385358  0.38715135  0.69515813    -0.12920
C762        C  0.13211961  0.39490095  0.72256675     0.00730
C763        C  0.14982877  0.37720896  0.73828990    -0.11440
C764        C  0.15893721  0.35165762  0.72658247     0.03220
C765        C  0.14863535  0.34317848  0.69984209    -0.10860
H766        H  0.11094549  0.40150000  0.68305352     0.08820
H767        H  0.15635842  0.38321179  0.75950400     0.06350
H768        H  0.15442807  0.32272060  0.69173285     0.06200
C769        C  0.19501642  0.19609335  0.68909859     0.03230
C770        C  0.20748303  0.17523825  0.67238506    -0.12920
C771        C  0.19210717  0.16217740  0.65043415     0.00730
C772        C  0.16481062  0.17071293  0.64442425    -0.11440
C773        C  0.15106695  0.19010542  0.66176244     0.03220
C774        C  0.16645523  0.20220536  0.68460707    -0.10860
H775        H  0.22907469  0.16935724  0.67624655     0.08820
H776        H  0.15492339  0.16267902  0.62533222     0.06350
H777        H  0.15675198  0.21726530  0.69847108     0.06200
C778        C  0.66408715  0.19707542  0.22705866     0.03230
C779        C  0.65316863  0.17158536  0.23770998    -0.12920
C780        C  0.63255690  0.15635167  0.22216079     0.00730
C781        C  0.62327825  0.16683499  0.19616152    -0.11440
C782        C  0.63375265  0.19206052  0.18562689     0.03220
C783        C  0.65424128  0.20715394  0.20090613    -0.10860
H784        H  0.66069093  0.16370983  0.25786086     0.08820
H785        H  0.60641147  0.15618709  0.18470172     0.06350
H786        H  0.66168726  0.22722311  0.19302527     0.06200
C787        C  0.18459446  0.67928806  0.21499424     0.03230
C788        C  0.19904540  0.66510088  0.19297744    -0.12920
C789        C  0.18777900  0.64048237  0.18001313     0.00730
C790        C  0.16356782  0.62839696  0.19076856    -0.11440
C791        C  0.15041269  0.64022359  0.21381128     0.03220
C792        C  0.15975240  0.66612821  0.22482170    -0.10860
H793        H  0.21954898  0.67202674  0.18655006     0.08820
H794        H  0.15627958  0.60815023  0.18273591     0.06350
H795        H  0.14777582  0.67483759  0.24180464     0.06200
C796        C  0.36066333  0.35037669  0.19932029     0.03230
C797        C  0.35320520  0.37776185  0.19030100    -0.12920
C798        C  0.36624289  0.39044489  0.16731436     0.00730
C799        C  0.38933303  0.37790084  0.15533326    -0.11440
C800        C  0.39750516  0.35107966  0.16359804     0.03220
C801        C  0.38275566  0.33691147  0.18503925    -0.10860
H802        H  0.33620843  0.38905866  0.19985190     0.08820
H803        H  0.39875294  0.38751376  0.13695509     0.06350
H804        H  0.38760571  0.31511613  0.18922136     0.06200
C805        C  0.35076005  0.17477050  0.37660129     0.03230
C806        C  0.37650770  0.16596606  0.36587683    -0.12920
C807        C  0.39226361  0.14545501  0.38009004     0.00730
C808        C  0.38257498  0.13434362  0.40542378    -0.11440
C809        C  0.35681308  0.14258188  0.41619096     0.03220
C810        C  0.34118949  0.16327969  0.40202460    -0.10860
H811        H  0.38327270  0.17348171  0.34546260     0.08820
H812        H  0.39350065  0.11673842  0.41492378     0.06350
H813        H  0.32085968  0.16918921  0.40990381     0.06200
C814        C  0.15734693  0.33985695  0.37360581     0.03230
C815        C  0.14763198  0.36529768  0.36232297    -0.12920
C816        C  0.13110710  0.38334454  0.37853865     0.00730
C817        C  0.12378886  0.37503369  0.40586285    -0.11440
C818        C  0.13051762  0.34830292  0.41613011     0.03220
C819        C  0.14841482  0.33114100  0.40039960    -0.10860
H820        H  0.15329288  0.37099256  0.34102573     0.08820
H821        H  0.11164467  0.38899661  0.41895073     0.06350
H822        H  0.15498689  0.31095317  0.40863914     0.06200
C823        C  0.25937361  0.26370897  0.32334258     0.02390
C824        C  0.24777294  0.28870511  0.31238532     0.02390
C825        C  0.26023326  0.30255408  0.28898639     0.02390
C826        C  0.28590487  0.29178076  0.27773171     0.02390
C827        C  0.29220139  0.26271306  0.28361261     0.02390
C828        C  0.28292838  0.25187960  0.31018089     0.02390
C829        C  0.22401594  0.30141854  0.32797148    -0.00050
C830        C  0.19672249  0.30053453  0.31653026    -0.11930
C831        C  0.17434745  0.31223368  0.33133517     0.02180
C832        C  0.17907740  0.32410398  0.35840337    -0.00140
C833        C  0.20614085  0.32409326  0.37013586    -0.11870
C834        C  0.22857270  0.31330615  0.35507882     0.02070
H835        H  0.19304310  0.29110016  0.29590538     0.15050
H836        H  0.21001035  0.33399706  0.39052787     0.15050
C837        C  0.25648454  0.31740149  0.36659830     0.36700
C838        C  0.14679812  0.31193442  0.31840432     0.36610
N839        N  0.27881623  0.32153377  0.37557136    -0.43640
N840        N  0.12471232  0.31177569  0.30800910    -0.43640
C841        C  0.33290311  0.19407251  0.35978985    -0.00050
C842        C  0.34376015  0.22046629  0.35229698    -0.11930
C843        C  0.32780086  0.23938157  0.33631461     0.02180
C844        C  0.30058043  0.23173517  0.32681550    -0.00140
C845        C  0.28969984  0.20526324  0.33447425    -0.10550
C846        C  0.30556275  0.18645710  0.35064586     0.02070
H847        H  0.36456523  0.22660300  0.35962823     0.15050
H848        H  0.26888654  0.19907411  0.32724139     0.15050
C849        C  0.29358296  0.15914607  0.35658740     0.36700
C850        C  0.33893401  0.26737345  0.33220290     0.36610
N851        N  0.28374282  0.13732203  0.36117290    -0.43640
N852        N  0.34792349  0.28990672  0.32969062    -0.43640
C853        C  0.30704620  0.31075311  0.26235652    -0.00050
C854        C  0.33571983  0.30349358  0.26105725    -0.11930
C855        C  0.35393518  0.31635335  0.24157186     0.02180
C856        C  0.34317350  0.33556867  0.22126553    -0.00140
C857        C  0.31478178  0.34286376  0.22360459    -0.11870
C858        C  0.29951812  0.33522391  0.24727852     0.02070
H859        H  0.34383199  0.28699370  0.27446504     0.15050
H860        H  0.30538192  0.35808578  0.20951378     0.15050
C861        C  0.29037803  0.35973874  0.26237561     0.36700
C862        C  0.38326843  0.30951933  0.24341328     0.36610
N863        N  0.28519569  0.38079100  0.27343147    -0.43640
N864        N  0.40678475  0.30396308  0.24507453    -0.43640
C865        C  0.20892656  0.21800359  0.38387847    -0.00050
C866        C  0.23500807  0.22925659  0.39244356    -0.11930
C867        C  0.25197018  0.24409956  0.37349820     0.02180
C868        C  0.24311856  0.24743004  0.34503472    -0.00140
C869        C  0.21712581  0.23574781  0.33653355    -0.11870
C870        C  0.19999573  0.22143282  0.35563478     0.02070
H871        H  0.24210118  0.22647238  0.41412013     0.15050
H872        H  0.21012309  0.23799574  0.31476532     0.15050
C873        C  0.17368743  0.20971793  0.34559930     0.36700
C874        C  0.27831706  0.25526210  0.38396848     0.36610
N875        N  0.15258705  0.20028343  0.33761599    -0.43640
N876        N  0.29944082  0.26382075  0.39285806    -0.43640
C877        C  0.09096308  0.32645896  0.60793363    -0.00050
C878        C  0.07618479  0.34475476  0.62556353    -0.11930
C879        C  0.08822351  0.35559535  0.65044667     0.02180
C880        C  0.11680280  0.35041227  0.65713958    -0.00140
C881        C  0.13219104  0.33374667  0.63837577    -0.11870
C882        C  0.11942708  0.32108030  0.61458012     0.02070
H883        H  0.05409632  0.34843387  0.62150794     0.15050
H884        H  0.15408313  0.32957470  0.64289523     0.15050
C885        C  0.13570846  0.30125246  0.59871819     0.36700
C886        C  0.06949380  0.36899857  0.66996261     0.36610
N887        N  0.14893169  0.28492040  0.58673535    -0.43640
N888        N  0.05421455  0.37957394  0.68541704    -0.43640
C889        C  0.11738186  0.33838548  0.44263219    -0.00050
C890        C  0.13386692  0.32645834  0.46418049    -0.11930
C891        C  0.12175593  0.31716712  0.48939162     0.02180
C892        C  0.09277561  0.32084811  0.49385963    -0.00140
C893        C  0.07649772  0.33313164  0.47234147    -0.11870
C894        C  0.08822697  0.34095817  0.44670720     0.02070
H895        H  0.15619524  0.32409125  0.46118065     0.15050
H896        H  0.05398954  0.33473742  0.47464131     0.15050
C897        C  0.06934943  0.34919988  0.42412912     0.36700
C898        C  0.13953234  0.30339632  0.50984260     0.36610
N899        N  0.05409578  0.35543237  0.40603856    -0.43640
N900        N  0.15422823  0.29213760  0.52572000    -0.43640
C901        C  0.07486040  0.22513099  0.62718382    -0.00050
C902        C  0.08017407  0.19637493  0.62359609    -0.11930
C903        C  0.10267417  0.18352156  0.63777888     0.02180
C904        C  0.12225841  0.20020457  0.65360076    -0.00140
C905        C  0.11497634  0.22824115  0.65942377    -0.11870
C906        C  0.09086042  0.24019168  0.64773877     0.02070
H907        H  0.06696833  0.18398141  0.60936600     0.15050
H908        H  0.12853516  0.24164980  0.67220051     0.15050
C909        C  0.08361441  0.26807908  0.65721097     0.36700
C910        C  0.10457098  0.15323292  0.63607075     0.36610
N911        N  0.07757284  0.29006058  0.66563505    -0.43640
N912        N  0.10601162  0.12895596  0.63466994    -0.43640
C913        C  0.08067580  0.22501510  0.48134049    -0.00050
C914        C  0.10557211  0.21797668  0.49552033    -0.11930
C915        C  0.12930025  0.21029471  0.48067906     0.02180
C916        C  0.12813810  0.20808739  0.45086557    -0.00140
C917        C  0.10326531  0.21521719  0.43649189    -0.11870
C918        C  0.07968906  0.22407788  0.45151137     0.02070
H919        H  0.10704768  0.22011944  0.51833146     0.15050
H920        H  0.10220041  0.21362326  0.41364799     0.15050
C921        C  0.05467976  0.23184444  0.43603146     0.36700
C922        C  0.15499910  0.20601770  0.49658537     0.36610
N923        N  0.03458896  0.23809637  0.42369182    -0.43640
N924        N  0.17556469  0.20264043  0.50932104    -0.43640
C925        C  0.22774859  0.10113043  0.49151800    -0.00050
C926        C  0.20221468  0.09412277  0.47794001    -0.11930
C927        C  0.18962224  0.11257193  0.45856784     0.02180
C928        C  0.20264079  0.13859446  0.45237188    -0.00140
C929        C  0.22809059  0.14554015  0.46566652    -0.11870
C930        C  0.24067871  0.12741991  0.48502391     0.02070
H931        H  0.19219842  0.07402539  0.48210329     0.15050
H932        H  0.23785779  0.16580253  0.46154094     0.15050
C933        C  0.26700006  0.13684907  0.49742071     0.36700
C934        C  0.16359815  0.10416164  0.44497881     0.36610
N935        N  0.28813283  0.14447929  0.50712595    -0.43640
N936        N  0.14269265  0.09748775  0.43413329    -0.43640
C937        C  0.22572131  0.09755495  0.59710145    -0.00050
C938        C  0.23285995  0.12609298  0.59295649    -0.11930
C939        C  0.22247341  0.14727391  0.61031748     0.02180
C940        C  0.20446052  0.14023612  0.63242401    -0.00140
C941        C  0.19589425  0.11209846  0.63575597    -0.11870
C942        C  0.20632690  0.09072208  0.61835431     0.02070
H943        H  0.24726588  0.13192448  0.57641987     0.15050
H944        H  0.18118827  0.10682551  0.65220164     0.15050
C945        C  0.19733960  0.06213015  0.62343417     0.36700
C946        C  0.23016088  0.17612452  0.60461702     0.36610
N947        N  0.18984681  0.03929347  0.62752173    -0.43640
N948        N  0.23623824  0.19919065  0.59965207    -0.43640
C949        C  0.32116230  0.08150885  0.47199189    -0.00050
C950        C  0.34616578  0.09552316  0.47986689    -0.11930
C951        C  0.35741045  0.11681145  0.46293006     0.02180
C952        C  0.34361850  0.12440951  0.43757062    -0.00140
C953        C  0.31842957  0.11101763  0.43001878    -0.11870
C954        C  0.30706760  0.08988635  0.44671418     0.02070
H955        H  0.35692177  0.09003047  0.49938210     0.15050
H956        H  0.30804275  0.11634399  0.41025477     0.15050
C957        C  0.28107291  0.07728367  0.43668945     0.36700
C958        C  0.38292827  0.13079901  0.47209528     0.36610
N959        N  0.26025968  0.06733149  0.42853286    -0.43640
N960        N  0.40337501  0.14206372  0.47939068    -0.43640
C961        C  0.24032453  0.24564810  0.75214061    -0.00050
C962        C  0.25053785  0.24357463  0.72461674    -0.11930
C963        C  0.23665927  0.22700824  0.70406717     0.02180
C964        C  0.21166538  0.21234249  0.71075521    -0.00140
C965        C  0.20147826  0.21454360  0.73836441    -0.11870
C966        C  0.21565704  0.23071029  0.75899637     0.02070
H967        H  0.26942562  0.25497283  0.71914144     0.15050
H968        H  0.18247632  0.20333406  0.74391908     0.15050
C969        C  0.20486801  0.23110185  0.78732429     0.36700
C970        C  0.24823491  0.22624347  0.67612449     0.36610
N971        N  0.19627868  0.23145067  0.81005033    -0.43640
N972        N  0.25795701  0.22580949  0.65389808    -0.43640
C973        C  0.17982839  0.33402966  0.74181837    -0.00050
C974        C  0.20698092  0.33250526  0.73115438    -0.11930
C975        C  0.22784542  0.31706132  0.74511534     0.02180
C976        C  0.22168674  0.30217505  0.77009573    -0.00140
C977        C  0.19419748  0.30302595  0.78033384    -0.11870
C978        C  0.17341148  0.31899578  0.76658840     0.02070
H979        H  0.21206139  0.34399445  0.71211421     0.15050
H980        H  0.18896318  0.29135108  0.79915314     0.15050
C981        C  0.14554476  0.31928641  0.77792385     0.36700
C982        C  0.25567164  0.31764252  0.73372503     0.36610
N983        N  0.12314792  0.31947463  0.78691173    -0.43640
N984        N  0.27783387  0.31844527  0.72423311    -0.43640
C985        C  0.32926149  0.18667343  0.74337898    -0.00050
C986        C  0.33450542  0.21527243  0.73841067    -0.11930
C987        C  0.31869105  0.23620594  0.75150663     0.02180
C988        C  0.29726438  0.22882602  0.77044604    -0.00140
C989        C  0.29178682  0.20014012  0.77534041    -0.11870
C990        C  0.30748415  0.17910009  0.76184602     0.02070
H991        H  0.35092227  0.22127384  0.72396996     0.15050
H992        H  0.27537454  0.19423038  0.78979996     0.15050
C993        C  0.30116562  0.14992784  0.76745522     0.36700
C994        C  0.32476745  0.26521257  0.74488384     0.36610
N995        N  0.29609885  0.12651355  0.77193262    -0.43640
N996        N  0.33000461  0.28836543  0.73942209    -0.43640
C997        C  0.34214494  0.11589810  0.66426993    -0.00050
C998        C  0.35109268  0.08758654  0.66384663    -0.11930
C999        C  0.34369170  0.06940771  0.64169369     0.02180
C1000       C  0.32593897  0.07894692  0.62004838    -0.00140
C1001       C  0.31685091  0.10702303  0.62021599    -0.11870
C1002       C  0.32503211  0.12562872  0.64188816     0.02070
H1003       H  0.36411106  0.07955142  0.68091428     0.15050
H1004       H  0.30289773  0.11434652  0.60358558     0.15050
C1005       C  0.31600046  0.15450638  0.64026283     0.36700
C1006       C  0.35491090  0.04127875  0.64134753     0.36610
N1007       N  0.30867030  0.17763000  0.63888807    -0.43640
N1008       N  0.36432681  0.01891102  0.64091739    -0.43640
C1009       C  0.91842292  0.20352290  0.64679751    -0.00050
C1010       C  0.94287808  0.21130106  0.66177181    -0.11930
C1011       C  0.96660678  0.22095200  0.64733060     0.02180
C1012       C  0.96625195  0.22176897  0.61749093    -0.00140
C1013       C  0.94176935  0.21378115  0.60273652    -0.11870
C1014       C  0.91778863  0.20558902  0.61707767     0.02070
H1015       H  0.94333224  0.21003566  0.68463654     0.15050
H1016       H  0.94067225  0.21593557  0.57993047     0.15050
C1017       C  0.89211549  0.20155666  0.60095949     0.36700
C1018       C  0.99094625  0.23008824  0.66342794     0.36610
N1019       N  0.87151323  0.19872584  0.58803733    -0.43640
N1020       N  0.01046223  0.23753326  0.67626773    -0.43640
C1021       C  0.91994224  0.20539662  0.44573324    -0.00050
C1022       C  0.94173111  0.18745052  0.45488919    -0.11930
C1023       C  0.96528241  0.19799748  0.46973364     0.02180
C1024       C  0.96827060  0.22716526  0.47408247    -0.00140
C1025       C  0.94779097  0.24519668  0.46287758    -0.11870
C1026       C  0.92341948  0.23473131  0.44992744     0.02070
H1027       H  0.93984060  0.16492497  0.45152390     0.15050
H1028       H  0.94961766  0.26769654  0.46633091     0.15050
C1029       C  0.90137779  0.25463162  0.44428518     0.36700
C1030       C  0.98579821  0.17856378  0.48063374     0.36610
N1031       N  0.88384970  0.27082009  0.44012655    -0.43640
N1032       N  0.00221771  0.16299571  0.48948135    -0.43640
C1033       C  0.81732407  0.08069971  0.62737148    -0.00050
C1034       C  0.84010746  0.09252823  0.61331584    -0.11930
C1035       C  0.85460735  0.11582542  0.62423967     0.02180
C1036       C  0.84727914  0.12717825  0.65097883    -0.00140
C1037       C  0.82679602  0.11270730  0.66663530    -0.11870
C1038       C  0.81143027  0.09014130  0.65493876     0.02070
H1039       H  0.84547625  0.08473157  0.59252244     0.15050
H1040       H  0.82170775  0.11981024  0.68770375     0.15050
C1041       C  0.78834160  0.07888085  0.67082199     0.36700
C1042       C  0.87529247  0.12803624  0.60593124     0.36610
N1043       N  0.76973796  0.07003343  0.68353127    -0.43640
N1044       N  0.89193083  0.13679989  0.59068141    -0.43640
C1045       C  0.82844831  0.08970835  0.49529839    -0.00050
C1046       C  0.83183553  0.08481470  0.46617878    -0.11930
C1047       C  0.83972912  0.10678105  0.44789501     0.02180
C1048       C  0.84504844  0.13401657  0.45879252    -0.00140
C1049       C  0.84279242  0.13857190  0.48789361    -0.11870
C1050       C  0.83446358  0.11704709  0.50600730     0.02070
H1051       H  0.82677111  0.06424931  0.45742031     0.15050
H1052       H  0.84720467  0.15938128  0.49650251     0.15050
C1053       C  0.83112427  0.12432123  0.53535463     0.36700
C1054       C  0.84206938  0.10102888  0.41809348     0.36610
N1055       N  0.82809025  0.13083332  0.55864709    -0.43640
N1056       N  0.84382506  0.09653800  0.39414824    -0.43640
C1057       C  0.69768048  0.12147390  0.65060581    -0.00050
C1058       C  0.72569150  0.12737261  0.64365888    -0.11930
C1059       C  0.73796219  0.11561090  0.61989738     0.02180
C1060       C  0.72371431  0.09443761  0.60429261    -0.00140
C1061       C  0.69573373  0.08862040  0.61035421    -0.11870
C1062       C  0.68211153  0.10326728  0.63196138     0.02070
H1063       H  0.73870706  0.14098135  0.65673380     0.15050
H1064       H  0.68421997  0.07340802  0.59746918     0.15050
C1065       C  0.65202947  0.10028280  0.63289696     0.36700
C1066       C  0.76523574  0.12606245  0.61213194     0.36610
N1067       N  0.62791265  0.09779855  0.63349619    -0.43640
N1068       N  0.78667193  0.13545738  0.60586519    -0.43640
C1069       C  0.79927459  0.24233119  0.74718933    -0.00050
C1070       C  0.82604821  0.23249560  0.75466755    -0.11930
C1071       C  0.84321377  0.21970299  0.73486432     0.02180
C1072       C  0.83353009  0.21584833  0.70686814    -0.00140
C1073       C  0.80676918  0.22557757  0.69915012    -0.11870
C1074       C  0.78981574  0.23924860  0.71891059     0.02070
H1075       H  0.83352884  0.23477569  0.77631068     0.15050
H1076       H  0.79920907  0.22258886  0.67762776     0.15050
C1077       C  0.76310495  0.24998804  0.70956522     0.36700
C1078       C  0.87036722  0.20981345  0.74405352     0.36610
N1079       N  0.74167428  0.25844607  0.70184238    -0.43640
N1080       N  0.89216676  0.20193174  0.75132217    -0.43640
C1081       C  0.74221487  0.22361090  0.76674923    -0.00050
C1082       C  0.71469005  0.23134327  0.75929719    -0.11930
C1083       C  0.69717121  0.21329012  0.74334587     0.02180
C1084       C  0.70723304  0.18709187  0.73407026    -0.00140
C1085       C  0.73454349  0.17912337  0.74175755    -0.11870
C1086       C  0.75183510  0.19675664  0.75833398     0.02070
H1087       H  0.70693895  0.25172561  0.76580197     0.15050
H1088       H  0.74204626  0.15854433  0.73554467     0.15050
C1089       C  0.77812341  0.18563994  0.76858737     0.36700
C1090       C  0.66916347  0.22228090  0.73625900     0.36610
N1091       N  0.79894121  0.17633927  0.77701554    -0.43640
N1092       N  0.64665998  0.22939045  0.73059507    -0.43640
C1093       C  0.95046018  0.31924970  0.60442986    -0.00050
C1094       C  0.96430865  0.33780662  0.62313563    -0.11930
C1095       C  0.95148859  0.34749958  0.64752314     0.02180
C1096       C  0.92286705  0.34111036  0.65243086    -0.00140
C1097       C  0.90865119  0.32321498  0.63324111    -0.11870
C1098       C  0.92241794  0.31138306  0.61012723     0.02070
H1099       H  0.98624952  0.34292136  0.62011255     0.15050
H1100       H  0.88693622  0.31762216  0.63678688     0.15050
C1101       C  0.90769512  0.28990562  0.59403185     0.36700
C1102       C  0.96941962  0.36146422  0.66819014     0.36610
N1103       N  0.89584616  0.27224070  0.58178381    -0.43640
N1104       N  0.98409622  0.37252701  0.68451323    -0.43640
C1105       C  0.81757564  0.29699019  0.76513168    -0.00050
C1106       C  0.84560346  0.29609261  0.77444927    -0.11930
C1107       C  0.86651432  0.31084573  0.75997183     0.02180
C1108       C  0.85949358  0.32619198  0.73541374    -0.00140
C1109       C  0.83157576  0.32677504  0.72599992    -0.11870
C1110       C  0.81062104  0.31272694  0.74083293     0.02070
H1111       H  0.85097928  0.28429086  0.79329982     0.15050
H1112       H  0.82601811  0.33905296  0.70749953     0.15050
C1113       C  0.78186871  0.31613622  0.73174628     0.36700
C1114       C  0.89488564  0.31002765  0.77077346     0.36610
N1115       N  0.75879880  0.31916630  0.72466961    -0.43640
N1116       N  0.91753739  0.30923233  0.77972711    -0.43640
C1117       C  0.73509541  0.30584764  0.82550434    -0.00050
C1118       C  0.70645472  0.29862754  0.82709724    -0.11930
C1119       C  0.68870246  0.31302118  0.84572053     0.02180
C1120       C  0.70000771  0.33424416  0.86411947    -0.00140
C1121       C  0.72721069  0.34410570  0.85791094    -0.11870
C1122       C  0.74218400  0.33288324  0.83557342     0.02070
H1123       H  0.69822244  0.28089860  0.81503500     0.15050
H1124       H  0.73650854  0.36213478  0.86839222     0.15050
C1125       C  0.75205194  0.35372677  0.81599068     0.36700
C1126       C  0.65929127  0.30595131  0.84442644     0.36610
N1127       N  0.75833669  0.37127188  0.80034323    -0.43640
N1128       N  0.63572787  0.30013162  0.84308541    -0.43640
C1129       C  0.58675643  0.08110894  0.75083471    -0.00050
C1130       C  0.58039367  0.10610714  0.73639934    -0.11930
C1131       C  0.60182653  0.12328111  0.72570816     0.02180
C1132       C  0.63001626  0.11557075  0.72972786    -0.00140
C1133       C  0.63640425  0.09101460  0.74435384    -0.11870
C1134       C  0.61529067  0.07401279  0.75528205     0.02070
H1135       H  0.55871595  0.11234608  0.73377239     0.15050
H1136       H  0.65819304  0.08527854  0.74749474     0.15050
C1137       C  0.62448383  0.05106874  0.77283446     0.36700
C1138       C  0.59459363  0.14860863  0.71064138     0.36610
N1139       N  0.63409668  0.03377699  0.78704380    -0.43640
N1140       N  0.58895660  0.16898115  0.69857379    -0.43640
C1141       C  0.41539826  0.12642832  0.73320575    -0.00050
C1142       C  0.41195113  0.09740300  0.73738267    -0.11930
C1143       C  0.43475251  0.08003451  0.74270000     0.02180
C1144       C  0.46200627  0.09177458  0.74521135    -0.00140
C1145       C  0.46555497  0.12096808  0.74123170    -0.11870
C1146       C  0.44251042  0.13824640  0.73474488     0.02070
H1147       H  0.39116804  0.08807173  0.73547967     0.15050
H1148       H  0.48628850  0.13026320  0.74342017     0.15050
C1149       C  0.44710501  0.16772101  0.72911051     0.36700
C1150       C  0.42910592  0.05033592  0.74648911     0.36610
N1151       N  0.45071131  0.19136417  0.72445804    -0.43640
N1152       N  0.42440598  0.02659869  0.74951468    -0.43640
C1153       C  0.69452060  0.20488652  0.86293661    -0.00050
C1154       C  0.70262009  0.23244623  0.87118048    -0.11930
C1155       C  0.72388258  0.24737094  0.85732111     0.02180
C1156       C  0.73353830  0.23801012  0.83059400    -0.00140
C1157       C  0.72983127  0.20887043  0.82605510    -0.11870
C1158       C  0.71118021  0.19236920  0.84170623     0.02070
H1159       H  0.69381740  0.24253233  0.88937376     0.15050
H1160       H  0.74306024  0.19793930  0.81168266     0.15050
C1161       C  0.71218840  0.16240475  0.83667818     0.36700
C1162       C  0.73793334  0.26900579  0.87385561     0.36610
N1163       N  0.71352211  0.13852471  0.83203528    -0.43640
N1164       N  0.74867860  0.28589121  0.88809681    -0.43640
C1165       C  0.58803673  0.08008052  0.84986077    -0.00050
C1166       C  0.61734488  0.07739488  0.85113428    -0.11930
C1167       C  0.63446284  0.09979346  0.86055453     0.02180
C1168       C  0.62226078  0.12562052  0.86798673    -0.00140
C1169       C  0.59311132  0.12844912  0.86614815    -0.11870
C1170       C  0.57596843  0.10605988  0.85759917     0.02070
H1171       H  0.62684901  0.05766450  0.84505896     0.15050
H1172       H  0.58362952  0.14829754  0.87197860     0.15050
C1173       C  0.54616857  0.11097540  0.85635960     0.36700
C1174       C  0.66415327  0.09531333  0.86383554     0.36610
N1175       N  0.52234470  0.11519202  0.85569363    -0.43640
N1176       N  0.68790625  0.09144396  0.86675017    -0.43640
C1177       C  0.34760317  0.20881682  0.85854930    -0.00050
C1178       C  0.35927647  0.22935497  0.84090752    -0.11930
C1179       C  0.34211395  0.24788931  0.82563705     0.02180
C1180       C  0.31274809  0.24580633  0.82792004    -0.00140
C1181       C  0.30121802  0.22555813  0.84600169    -0.11870
C1182       C  0.31836849  0.20722942  0.86136451     0.02070
H1183       H  0.38185442  0.23084347  0.83907045     0.15050
H1184       H  0.27864865  0.22394114  0.84788864     0.15050
C1185       C  0.30562338  0.18713936  0.88012095     0.36700
C1186       C  0.35523203  0.26881284  0.80814748     0.36610
N1187       N  0.29549699  0.17109336  0.89529327    -0.43640
N1188       N  0.36630249  0.28559241  0.79449912    -0.43640
C1189       C  0.44505816  0.08460017  0.83892006    -0.00050
C1190       C  0.42488693  0.07568747  0.85831168    -0.11930
C1191       C  0.40653236  0.09521101  0.87040703     0.02180
C1192       C  0.40716315  0.12355359  0.86161588    -0.00140
C1193       C  0.42662461  0.13208067  0.84164119    -0.11870
C1194       C  0.44613974  0.11332788  0.83112943     0.02070
H1195       H  0.42415983  0.05379828  0.86471612     0.15050
H1196       H  0.42808204  0.15419442  0.83602046     0.15050
C1197       C  0.46844598  0.12538872  0.81482566     0.36700
C1198       C  0.38804896  0.08615195  0.89247430     0.36610
N1199       N  0.48614151  0.13675007  0.80277890    -0.43640
N1200       N  0.37335134  0.07906047  0.91036111    -0.43640
C1201       C  0.34473806  0.20770037  0.23210048    -0.00050
C1202       C  0.33718031  0.23471198  0.22214804    -0.11930
C1203       C  0.31622827  0.25053188  0.23529543     0.02180
C1204       C  0.30696419  0.24294706  0.26258170    -0.00140
C1205       C  0.30887979  0.21382481  0.26791021    -0.11870
C1206       C  0.32702335  0.19623715  0.25307294     0.02070
H1207       H  0.34589694  0.24333114  0.20315272     0.15050
H1208       H  0.29454308  0.20391966  0.28208137     0.15050
C1209       C  0.32425054  0.16635087  0.25801934     0.36700
C1210       C  0.30060039  0.26956058  0.21747149     0.36610
N1211       N  0.32179284  0.14246188  0.26216911    -0.43640
N1212       N  0.28801014  0.28404516  0.20243029    -0.43640
C1213       C  0.58565016  0.22072065  0.98167036    -0.00050
C1214       C  0.61508589  0.22270278  0.98461704    -0.11930
C1215       C  0.63292137  0.21107438  0.96446480     0.02180
C1216       C  0.62143601  0.19721512  0.94056876    -0.00140
C1217       C  0.59209520  0.19492119  0.93787737    -0.11870
C1218       C  0.57430082  0.20595395  0.95815663     0.02070
H1219       H  0.62435709  0.23395061  0.00244942     0.15050
H1220       H  0.58283366  0.18458059  0.91947867     0.15050
C1221       C  0.54458933  0.20172054  0.95375144     0.36700
C1222       C  0.66279066  0.21340739  0.96904966     0.36610
N1223       N  0.52091937  0.19781350  0.94974713    -0.43640
N1224       N  0.68674824  0.21539929  0.97264535    -0.43640
C1225       C  0.46092534  0.21757529  0.97074992    -0.00050
C1226       C  0.44680633  0.19249468  0.97767915    -0.11930
C1227       C  0.42603765  0.18112998  0.95971606     0.02180
C1228       C  0.41907647  0.19489848  0.93424710    -0.00140
C1229       C  0.43303996  0.21988096  0.92730125    -0.11870
C1230       C  0.45366382  0.23136679  0.94508012     0.02070
H1231       H  0.45166558  0.18188823  0.99737135     0.15050
H1232       H  0.42818334  0.23025645  0.90745401     0.15050
C1233       C  0.46636441  0.25757334  0.93619012     0.36700
C1234       C  0.41172511  0.15570174  0.96815241     0.36610
N1235       N  0.47635902  0.27859604  0.92899820    -0.43640
N1236       N  0.40025287  0.13529476  0.97485545    -0.43640
C1237       C  0.45259831  0.31694958  0.10164961    -0.00050
C1238       C  0.42498157  0.30657723  0.10447378    -0.11930
C1239       C  0.40758608  0.31600359  0.12580762     0.02180
C1240       C  0.41733536  0.33670999  0.14488653    -0.00140
C1241       C  0.44435668  0.34815810  0.14157251    -0.11870
C1242       C  0.46204034  0.33847651  0.12023099     0.02070
H1243       H  0.41686910  0.29042946  0.09023354     0.15050
H1244       H  0.45137597  0.36516914  0.15536401     0.15050
C1245       C  0.48933575  0.35136309  0.11773135     0.36700
C1246       C  0.37933385  0.30492824  0.12684950     0.36610
N1247       N  0.51106465  0.36203351  0.11559635    -0.43640
N1248       N  0.35670871  0.29608070  0.12765958    -0.43640
C1249       C  0.46185597  0.21737020  0.12134970    -0.00050
C1250       C  0.47156170  0.21214869  0.14875845    -0.11930
C1251       C  0.45325305  0.20309561  0.16954264     0.02180
C1252       C  0.42452304  0.19869521  0.16283002    -0.00140
C1253       C  0.41464360  0.20436685  0.13547023    -0.11870
C1254       C  0.43307158  0.21379699  0.11471621     0.02070
H1255       H  0.49349208  0.21539523  0.15399870     0.15050
H1256       H  0.39263803  0.20121800  0.13030046     0.15050
C1257       C  0.42174529  0.22102726  0.08725681     0.36700
C1258       C  0.46446049  0.19901946  0.19776802     0.36610
N1259       N  0.41267447  0.22700391  0.06530175    -0.43640
N1260       N  0.47351683  0.19568160  0.22030836    -0.43640
C1261       C  0.61846758  0.20484720  0.16190357    -0.00050
C1262       C  0.59339361  0.21807646  0.16826593    -0.11930
C1263       C  0.57566589  0.22776222  0.14696477     0.02180
C1264       C  0.58300739  0.22426026  0.11822325    -0.00140
C1265       C  0.60844339  0.21109689  0.11185772    -0.11870
C1266       C  0.62607054  0.20110055  0.13354422     0.02070
H1267       H  0.58752484  0.22059719  0.19020347     0.15050
H1268       H  0.61456641  0.20875204  0.09001665     0.15050
C1269       C  0.65161130  0.18691752  0.12640112     0.36700
C1270       C  0.55099498  0.24253685  0.15590410     0.36610
N1271       N  0.67211336  0.17550610  0.12076941    -0.43640
N1272       N  0.53163866  0.25441773  0.16404910    -0.43640
C1273       C  0.62672629  0.32928501  0.94106852    -0.00050
C1274       C  0.62987279  0.32365332  0.96995586    -0.11930
C1275       C  0.60682055  0.31687268  0.98637860     0.02180
C1276       C  0.57996736  0.31428761  0.97368744    -0.00140
C1277       C  0.57702571  0.31898257  0.94445245    -0.11870
C1278       C  0.60002955  0.32697100  0.92824020     0.02070
H1279       H  0.65033865  0.32605785  0.98000647     0.15050
H1280       H  0.55657006  0.31711448  0.93432984     0.15050
C1281       C  0.59542145  0.33462394  0.89907194     0.36700
C1282       C  0.61156051  0.31352254  0.01624160     0.36610
N1283       N  0.59172952  0.34104655  0.87576784    -0.43640
N1284       N  0.61561446  0.31153345  0.04025429    -0.43640
C1285       C  0.58697159  0.08263390  0.24932054    -0.00050
C1286       C  0.59100761  0.10562866  0.26760605    -0.11930
C1287       C  0.60606381  0.12953645  0.25954630     0.02180
C1288       C  0.61878315  0.13037008  0.23291350    -0.00140
C1289       C  0.61436896  0.10747824  0.21429650    -0.11870
C1290       C  0.59780703  0.08426358  0.22189364     0.02070
H1291       H  0.58180827  0.10547497  0.28812137     0.15050
H1292       H  0.62277721  0.10836414  0.19315648     0.15050
C1293       C  0.58959797  0.06453093  0.20008993     0.36700
C1294       C  0.60583826  0.15365941  0.27808599     0.36610
N1295       N  0.58254254  0.04993938  0.18165154    -0.43640
N1296       N  0.60495271  0.17293406  0.29300617    -0.43640
C1297       C  0.41830225  0.13037181  0.23688893    -0.00050
C1298       C  0.42354710  0.10474989  0.22286758    -0.11930
C1299       C  0.44557732  0.08727763  0.23153747     0.02180
C1300       C  0.46275294  0.09552050  0.25458233    -0.00140
C1301       C  0.45615710  0.12010141  0.26970355    -0.11870
C1302       C  0.43417204  0.13737438  0.26125199     0.02070
H1303       H  0.41163424  0.09943359  0.20387671     0.15050
H1304       H  0.46855363  0.12619835  0.28815460     0.15050
C1305       C  0.42992868  0.16321758  0.27674425     0.36700
C1306       C  0.45137749  0.06234793  0.21520375     0.36610
N1307       N  0.42656151  0.18384151  0.28928912    -0.43640
N1308       N  0.45613751  0.04240471  0.20206615    -0.43640
C1309       C  0.44996140  0.08985804  0.34084873    -0.00050
C1310       C  0.45898945  0.10591287  0.36429513    -0.11930
C1311       C  0.44101651  0.12536467  0.37687118     0.02180
C1312       C  0.41404908  0.12969875  0.36521190    -0.00140
C1313       C  0.40553214  0.11462261  0.34116539    -0.11870
C1314       C  0.42282561  0.09458670  0.32918198     0.02070
H1315       H  0.47975586  0.10274357  0.37323562     0.15050
H1316       H  0.38456440  0.11749559  0.33252620     0.15050
C1317       C  0.41174800  0.07939269  0.30489059     0.36700
C1318       C  0.45036840  0.14030807  0.40191861     0.36610
N1319       N  0.40270024  0.06727809  0.28551161    -0.43640
N1320       N  0.45773331  0.15225501  0.42207394    -0.43640
C1321       C  0.70797487  0.12652504  0.43753808    -0.00050
C1322       C  0.73039474  0.11113000  0.42718902    -0.11930
C1323       C  0.74287504  0.09011929  0.44319419     0.02180
C1324       C  0.73340767  0.08455321  0.47099790    -0.00140
C1325       C  0.71152646  0.10086887  0.48181371    -0.11870
C1326       C  0.69847510  0.12145672  0.46510707     0.02070
H1327       H  0.73719273  0.11447114  0.40565583     0.15050
H1328       H  0.70419383  0.09718357  0.50305700     0.15050
C1329       C  0.67528219  0.13692097  0.47642355     0.36700
C1330       C  0.76469357  0.07434250  0.42958276     0.36610
N1331       N  0.65665938  0.14933970  0.48543591    -0.43640
N1332       N  0.78182300  0.06162928  0.41826790    -0.43640
C1333       C  0.63226917  0.12284983  0.36861380    -0.00050
C1334       C  0.63504377  0.09345332  0.36840629    -0.11930
C1335       C  0.61393809  0.07595119  0.35735684     0.02180
C1336       C  0.58936265  0.08788820  0.34551603    -0.00140
C1337       C  0.58620148  0.11739161  0.34678296    -0.11870
C1338       C  0.60736397  0.13482696  0.35820332     0.02070
H1339       H  0.65409910  0.08406496  0.37668575     0.15050
H1340       H  0.56748078  0.12704414  0.33810400     0.15050
C1341       C  0.60293430  0.16482704  0.35945512     0.36700
C1342       C  0.61852474  0.04593010  0.35843789     0.36610
N1343       N  0.59948420  0.18889592  0.36045393    -0.43640
N1344       N  0.62236131  0.02192264  0.35948936    -0.43640
C1345       C  0.72839450  0.24589529  0.27014588    -0.00050
C1346       C  0.70150973  0.24396171  0.28160102    -0.11930
C1347       C  0.68033561  0.22794873  0.26817693     0.02180
C1348       C  0.68593029  0.21344448  0.24279656    -0.00140
C1349       C  0.71268435  0.21575540  0.23115222    -0.11870
C1350       C  0.73386142  0.23161845  0.24463164     0.02070
H1351       H  0.69712119  0.25482984  0.30118637     0.15050
H1352       H  0.71708931  0.20490270  0.21153466     0.15050
C1353       C  0.76131467  0.23234418  0.23227253     0.36700
C1354       C  0.65283664  0.22785325  0.28030441     0.36610
N1355       N  0.78332771  0.23299614  0.22239142    -0.43640
N1356       N  0.63090433  0.22851090  0.29031445    -0.43640
C1357       C  0.74695938  0.22855935  0.32680559    -0.00050
C1358       C  0.74339758  0.20061673  0.31761169    -0.11930
C1359       C  0.72620635  0.18188377  0.33246825     0.02180
C1360       C  0.71210592  0.19120643  0.35675352    -0.00140
C1361       C  0.71583465  0.21904938  0.36596295    -0.11870
C1362       C  0.73293955  0.23772986  0.35118513     0.02070
H1363       H  0.75390926  0.19353872  0.29876771     0.15050
H1364       H  0.70529305  0.22619486  0.38478733     0.15050
C1365       C  0.73531934  0.26645478  0.36108698     0.36700
C1366       C  0.72411765  0.15300426  0.32304871     0.36610
N1367       N  0.73730161  0.28946163  0.36903794    -0.43640
N1368       N  0.72255169  0.12980548  0.31560136    -0.43640
C1369       C  0.80454726  0.24267663  0.34319092    -0.00050
C1370       C  0.80650992  0.25259090  0.37112018    -0.11930
C1371       C  0.82016451  0.23678154  0.39219862     0.02180
C1372       C  0.83246210  0.21064775  0.38546477    -0.00140
C1373       C  0.83008927  0.20053101  0.35768907    -0.11870
C1374       C  0.81624157  0.21618130  0.33668252     0.02070
H1375       H  0.79721866  0.27261817  0.37648974     0.15050
H1376       H  0.83963115  0.18062806  0.35226344     0.15050
C1377       C  0.81512125  0.20506107  0.30826289     0.36700
C1378       C  0.82070738  0.24746683  0.42076614     0.36610
N1379       N  0.81424921  0.19623530  0.28544982    -0.43640
N1380       N  0.82081130  0.25599306  0.44369612    -0.43640
C1381       C  0.71167920  0.33425042  0.21597613    -0.00050
C1382       C  0.70408313  0.33189900  0.24430711    -0.11930
C1383       C  0.72035276  0.31631929  0.26339058     0.02180
C1384       C  0.74515172  0.30310311  0.25437606    -0.00140
C1385       C  0.75256989  0.30508357  0.22590974    -0.11870
C1386       C  0.73576961  0.32002553  0.20661523     0.02070
H1387       H  0.68535850  0.34231369  0.25153598     0.15050
H1388       H  0.77110457  0.29438122  0.21864937     0.15050
C1389       C  0.74249305  0.31865976  0.17704722     0.36700
C1390       C  0.71141031  0.31474122  0.29233986     0.36610
N1391       N  0.74772534  0.31692233  0.15331969    -0.43640
N1392       N  0.70406501  0.31359076  0.31548684    -0.43640
C1393       C  0.62611210  0.34118364  0.15520056    -0.00050
C1394       C  0.63131453  0.32037916  0.13529255    -0.11930
C1395       C  0.60977676  0.30863943  0.11885256     0.02180
C1396       C  0.58163843  0.31733847  0.12257454    -0.00140
C1397       C  0.57632330  0.33761608  0.14356567    -0.11870
C1398       C  0.59840825  0.35005047  0.15938492     0.02070
H1399       H  0.65277381  0.31382232  0.13199302     0.15050
H1400       H  0.55501937  0.34419858  0.14720986     0.15050
C1401       C  0.59235652  0.37197856  0.17948036     0.36700
C1402       C  0.61858710  0.28753969  0.09912898     0.36610
N1403       N  0.58759790  0.38963855  0.19556793    -0.43640
N1404       N  0.62876575  0.27119680  0.08435783    -0.43640
C1405       C  0.61244718  0.90429275  0.23455152    -0.00050
C1406       C  0.61344142  0.93174275  0.22363436    -0.11930
C1407       C  0.59384868  0.95205859  0.23177161     0.02180
C1408       C  0.57239554  0.94477693  0.25059318    -0.00140
C1409       C  0.57241042  0.91741216  0.26212862    -0.11870
C1410       C  0.59185365  0.89736406  0.25425326     0.02070
H1411       H  0.62919027  0.93708420  0.20822782     0.15050
H1412       H  0.55682569  0.91118450  0.27737705     0.15050
C1413       C  0.58846003  0.86920610  0.26506607     0.36700
C1414       C  0.59669319  0.97995804  0.22071258     0.36610
N1415       N  0.58480011  0.84681517  0.27384296    -0.43640
N1416       N  0.59995053  0.00233887  0.21190088    -0.43640
C1417       C  0.44919028  0.96516083  0.24765142    -0.00050
C1418       C  0.46163013  0.93862380  0.25027433    -0.11930
C1419       C  0.44765279  0.91410914  0.24136531     0.02180
C1420       C  0.42068280  0.91569144  0.22887708    -0.00140
C1421       C  0.40793165  0.94207976  0.22633247    -0.11870
C1422       C  0.42183923  0.96671791  0.23574862     0.02070
H1423       H  0.48198096  0.93676687  0.26031894     0.15050
H1424       H  0.38734432  0.94348704  0.21649373     0.15050
C1425       C  0.40786750  0.99332263  0.23221825     0.36700
C1426       C  0.46121346  0.88737614  0.24589051     0.36610
N1427       N  0.39663218  0.01463978  0.22935475    -0.43640
N1428       N  0.47204796  0.86597675  0.24962535    -0.43640
C1429       C  0.58672160  0.82040354  0.10871724    -0.00050
C1430       C  0.58524973  0.80595105  0.13448037    -0.11930
C1431       C  0.60187393  0.81376249  0.15772205     0.02180
C1432       C  0.61915369  0.83784931  0.15624560    -0.00140
C1433       C  0.61913386  0.85372361  0.13111105    -0.11870
C1434       C  0.60332871  0.84492107  0.10724607     0.02070
H1435       H  0.57163393  0.78779357  0.13638934     0.15050
H1436       H  0.63132707  0.87304866  0.13023648     0.15050
C1437       C  0.60358282  0.86170242  0.08193380     0.36700
C1438       C  0.60028542  0.79698990  0.18307893     0.36610
N1439       N  0.60344107  0.87527823  0.06168564    -0.43640
N1440       N  0.59918085  0.78340455  0.20328334    -0.43640
C1441       C  0.46659441  0.81327962  0.12295383    -0.00050
C1442       C  0.45127971  0.83720493  0.11535695    -0.11930
C1443       C  0.43288214  0.84957844  0.13458229     0.02180
C1444       C  0.42891419  0.83730208  0.16144143    -0.00140
C1445       C  0.44318418  0.81271572  0.16841841    -0.11870
C1446       C  0.46207839  0.80083821  0.14978325     0.02070
H1447       H  0.45439741  0.84677080  0.09486757     0.15050
H1448       H  0.44044030  0.80338512  0.18910033     0.15050
C1449       C  0.47672957  0.77602634  0.15929825     0.36700
C1450       C  0.41855238  0.87500057  0.12647313     0.36610
N1451       N  0.48860310  0.75642016  0.16735496    -0.43640
N1452       N  0.40717870  0.89549118  0.12010650    -0.43640
C1453       C  0.63089782  0.70287253  0.14456874    -0.00050
C1454       C  0.60931987  0.68451200  0.13496565    -0.11930
C1455       C  0.58748867  0.69403586  0.11733765     0.02180
C1456       C  0.58579825  0.72280469  0.11069023    -0.00140
C1457       C  0.60750599  0.74087384  0.11984429    -0.11870
C1458       C  0.62993268  0.73137022  0.13632084     0.02070
H1459       H  0.61007299  0.66236150  0.14036154     0.15050
H1460       H  0.60806446  0.76229485  0.11256170     0.15050
C1461       C  0.65261643  0.75095657  0.14223940     0.36700
C1462       C  0.56831861  0.67366440  0.10505198     0.36610
N1463       N  0.67070878  0.76675459  0.14685323    -0.43640
N1464       N  0.55342055  0.65702087  0.09491061    -0.43640
C1465       C  0.72680493  0.79932470  0.27147326    -0.00050
C1466       C  0.69915516  0.79804619  0.28087447    -0.11930
C1467       C  0.67755541  0.81177148  0.26608898     0.02180
C1468       C  0.68339910  0.82685420  0.24110170    -0.00140
C1469       C  0.71104879  0.82771323  0.23150339    -0.11870
C1470       C  0.73267883  0.81434267  0.24652684     0.02070
H1471       H  0.69439380  0.78606944  0.29967465     0.15050
H1472       H  0.71582543  0.83929070  0.21244233     0.15050
C1473       C  0.76087724  0.81653305  0.23612901     0.36700
C1474       C  0.64954511  0.80906095  0.27664705     0.36610
N1475       N  0.78350013  0.81816470  0.22782739    -0.43640
N1476       N  0.62738007  0.80611538  0.28573907    -0.43640
C1477       C  0.74313622  0.74277304  0.25459461    -0.00050
C1478       C  0.74881430  0.74471506  0.22567780    -0.11930
C1479       C  0.73310786  0.72910799  0.20573874     0.02180
C1480       C  0.71099576  0.71144925  0.21457802    -0.00140
C1481       C  0.70490384  0.70992304  0.24339949    -0.11870
C1482       C  0.72078920  0.72535329  0.26337151     0.02070
H1483       H  0.76553174  0.75839413  0.21862719     0.15050
H1484       H  0.68786749  0.69650168  0.25030171     0.15050
C1485       C  0.71385344  0.72305116  0.29285273     0.36700
C1486       C  0.73990804  0.73166248  0.17624960     0.36610
N1487       N  0.70834806  0.72138651  0.31651173    -0.43640
N1488       N  0.74534858  0.73373647  0.15260758    -0.43640
C1489       C  0.86100908  0.71520615  0.36216875    -0.00050
C1490       C  0.86791168  0.72543961  0.33530121    -0.11930
C1491       C  0.84828834  0.74021229  0.31860611     0.02180
C1492       C  0.82062218  0.74404828  0.32823591    -0.00140
C1493       C  0.81388513  0.73368015  0.35513086    -0.11870
C1494       C  0.83372637  0.71983565  0.37214377     0.02070
H1495       H  0.88890993  0.72228090  0.32753787     0.15050
H1496       H  0.79283664  0.73644614  0.36291724     0.15050
C1497       C  0.82532409  0.70990739  0.39955080     0.36700
C1498       C  0.85766218  0.75198842  0.29234890     0.36610
N1499       N  0.81864559  0.70203580  0.42157152    -0.43640
N1500       N  0.86584306  0.76131765  0.27145329    -0.43640
C1501       C  0.70127294  0.93474478  0.43279857    -0.00050
C1502       C  0.69428585  0.92662036  0.46017785    -0.11930
C1503       C  0.70026400  0.94429272  0.48317534     0.02180
C1504       C  0.71368407  0.97054729  0.47895435    -0.00140
C1505       C  0.71854475  0.97964827  0.45128083    -0.11870
C1506       C  0.71232724  0.96196144  0.42819563     0.02070
H1507       H  0.68425969  0.90635803  0.46357184     0.15050
H1508       H  0.72916725  0.99958722  0.44781096     0.15050
C1509       C  0.71801091  0.97180740  0.40002103     0.36700
C1510       C  0.69331383  0.93468253  0.51113898     0.36610
N1511       N  0.72256287  0.97966776  0.37742759    -0.43640
N1512       N  0.68758948  0.92701152  0.53350862    -0.43640
C1513       C  0.63206161  0.91667928  0.35868964    -0.00050
C1514       C  0.63791590  0.93055374  0.33353408    -0.11930
C1515       C  0.61889253  0.94924385  0.32179653     0.02180
C1516       C  0.59259010  0.95340358  0.33471856    -0.00140
C1517       C  0.58575917  0.93762518  0.35868979    -0.11870
C1518       C  0.60558385  0.91973393  0.37111485     0.02070
H1519       H  0.65849879  0.92862516  0.32429924     0.15050
H1520       H  0.56557301  0.94033270  0.36849023     0.15050
C1521       C  0.59890707  0.90562877  0.39713824     0.36700
C1522       C  0.62796903  0.96472016  0.29729256     0.36610
N1523       N  0.59367712  0.89436114  0.41806201    -0.43640
N1524       N  0.63584168  0.97733507  0.27806926    -0.43640
C1525       C  0.71806822  0.85892280  0.35970513    -0.00050
C1526       C  0.73922684  0.86729678  0.34112076    -0.11930
C1527       C  0.75356160  0.84727864  0.32497774     0.02180
C1528       C  0.74690460  0.81844521  0.32762503    -0.00140
C1529       C  0.72609427  0.81014518  0.34653097    -0.11870
C1530       C  0.71156597  0.83005790  0.36231957     0.02070
H1531       H  0.74388910  0.88951677  0.33856936     0.15050
H1532       H  0.72109395  0.78795269  0.34879426     0.15050
C1533       C  0.68979100  0.82046038  0.38088685     0.36700
C1534       C  0.77438981  0.85675194  0.30533874     0.36610
N1535       N  0.67227830  0.81285067  0.39574126    -0.43640
N1536       N  0.79099171  0.86442819  0.28949647    -0.43640
C1537       C  0.70381151  0.62920626  0.14773339    -0.00050
C1538       C  0.68572416  0.60669020  0.14009353    -0.11930
C1539       C  0.69527677  0.58377628  0.12423858     0.02180
C1540       C  0.72347086  0.58282733  0.11635584    -0.00140
C1541       C  0.74145351  0.60500478  0.12417119    -0.11870
C1542       C  0.73207257  0.62809301  0.13953324     0.02070
H1543       H  0.66384095  0.60740149  0.14583883     0.15050
H1544       H  0.76287601  0.60469648  0.11763991     0.15050
C1545       C  0.75158887  0.65097371  0.14480053     0.36700
C1546       C  0.67547566  0.56257996  0.11481969     0.36610
N1547       N  0.76735916  0.66920400  0.14893608    -0.43640
N1548       N  0.65926246  0.54598535  0.10699497    -0.43640
C1549       C  0.72097453  0.44989514  0.10237078    -0.00050
C1550       C  0.73884429  0.43024199  0.11537196    -0.11930
C1551       C  0.72953528  0.41152701  0.13580390     0.02180
C1552       C  0.70128631  0.41214311  0.14451267    -0.00140
C1553       C  0.68374135  0.43312038  0.13275819    -0.11870
C1554       C  0.69319989  0.45160661  0.11168069     0.02070
H1555       H  0.76068177  0.42919233  0.10945588     0.15050
H1556       H  0.66219095  0.43461606  0.13942809     0.15050
C1557       C  0.67356664  0.47076250  0.09886137     0.36700
C1558       C  0.74994763  0.39170597  0.14619367     0.36610
N1559       N  0.65761178  0.48578669  0.08834251    -0.43640
N1560       N  0.76723547  0.37668730  0.15425840    -0.43640
C1561       C  0.69643304  0.40498305  0.94337548    -0.00050
C1562       C  0.68003098  0.42608280  0.95562421    -0.11930
C1563       C  0.69115452  0.44410975  0.97644939     0.02180
C1564       C  0.71941332  0.44133765  0.98518122    -0.00140
C1565       C  0.73588058  0.42053791  0.97244445    -0.11870
C1566       C  0.72473872  0.40244143  0.95187174     0.02070
H1567       H  0.65811867  0.42780467  0.94955420     0.15050
H1568       H  0.75777403  0.41835630  0.97841316     0.15050
C1569       C  0.74254203  0.38052974  0.94109332     0.36700
C1570       C  0.67278725  0.46445760  0.98906339     0.36610
N1571       N  0.75693633  0.36305602  0.93256361    -0.43640
N1572       N  0.65803252  0.48072049  0.99919284    -0.43640
C1573       C  0.82663283  0.68461036  0.23798747    -0.00050
C1574       C  0.81359377  0.67678244  0.26322342    -0.11930
C1575       C  0.79976378  0.69679230  0.27964630     0.02180
C1576       C  0.79945959  0.72510916  0.27100715    -0.00140
C1577       C  0.81240037  0.73276790  0.24568282    -0.11870
C1578       C  0.82582863  0.71277234  0.22910754     0.02070
H1579       H  0.81403759  0.65497311  0.26991286     0.15050
H1580       H  0.81224324  0.75460255  0.23904912     0.15050
C1581       C  0.83902971  0.72161112  0.20334777     0.36700
C1582       C  0.78558748  0.68782133  0.30480497     0.36610
N1583       N  0.84964256  0.72860952  0.18268147    -0.43640
N1584       N  0.77416426  0.68067475  0.32497165    -0.43640
C1585       C  0.82811625  0.61413692  0.15959071    -0.00050
C1586       C  0.82593891  0.62998780  0.13480094    -0.11930
C1587       C  0.81832684  0.61715023  0.10919358     0.02180
C1588       C  0.81303178  0.58776427  0.10834837    -0.00140
C1589       C  0.81619898  0.57199826  0.13328278    -0.11870
C1590       C  0.82300836  0.58493356  0.15878801     0.02070
H1591       H  0.83056074  0.65238943  0.13543143     0.15050
H1592       H  0.81192778  0.54953273  0.13338824     0.15050
C1593       C  0.82408704  0.56779316  0.18396877     0.36700
C1594       C  0.81524850  0.63488294  0.08466040     0.36610
N1595       N  0.82504771  0.55400437  0.20405858    -0.43640
N1596       N  0.81266782  0.64924016  0.06511043    -0.43640
C1597       C  0.83518133  0.35987404  0.23826066    -0.00050
C1598       C  0.81079909  0.36778468  0.25245349    -0.11930
C1599       C  0.79565369  0.34825972  0.26867291     0.02180
C1600       C  0.80415494  0.31984210  0.26992006    -0.00140
C1601       C  0.82870513  0.31210281  0.25590844    -0.11870
C1602       C  0.84437025  0.33182366  0.24058415     0.02070
H1603       H  0.80394874  0.38947165  0.25137255     0.15050
H1604       H  0.83566076  0.29044821  0.25694798     0.15050
C1605       C  0.86966396  0.32272245  0.22710936     0.36700
C1606       C  0.77239606  0.35828507  0.28484316     0.36610
N1607       N  0.89003258  0.31550181  0.21641501    -0.43640
N1608       N  0.75400137  0.36675290  0.29795271    -0.43640
C1609       C  0.83939667  0.42963095  0.15866507    -0.00050
C1610       C  0.81624608  0.44582030  0.16575673    -0.11930
C1611       C  0.80493052  0.46524194  0.14679017     0.02180
C1612       C  0.81639153  0.46828663  0.11933906    -0.00140
C1613       C  0.83970195  0.45189897  0.11231540    -0.11870
C1614       C  0.85137880  0.43292527  0.13178410     0.02070
H1615       H  0.80760824  0.44405432  0.18676396     0.15050
H1616       H  0.84866511  0.45360480  0.09147938     0.15050
C1617       C  0.87554278  0.41687552  0.12372088     0.36700
C1618       C  0.78172845  0.48176846  0.15668002     0.36610
N1619       N  0.89495497  0.40402495  0.11735482    -0.43640
N1620       N  0.76314682  0.49488422  0.16476969    -0.43640
C1621       C  0.24237069  0.32232267  0.27190708    -0.00050
C1622       C  0.23491486  0.31411577  0.24418992    -0.11930
C1623       C  0.21836264  0.33127765  0.22675497     0.02180
C1624       C  0.20806262  0.35696424  0.23718680    -0.00140
C1625       C  0.21460040  0.36485339  0.26510207    -0.11870
C1626       C  0.23170263  0.34811056  0.28239490     0.02070
H1627       H  0.24214763  0.29412246  0.23609778     0.15050
H1628       H  0.20716533  0.38483845  0.27309836     0.15050
C1629       C  0.24036854  0.35987650  0.30931971     0.36700
C1630       C  0.21166706  0.32175839  0.19845107     0.36610
N1631       N  0.24740976  0.37052072  0.33030452    -0.43640
N1632       N  0.20631360  0.31416681  0.17573939    -0.43640
C1633       C  0.94859234  0.58596314  0.25632876    -0.00050
C1634       C  0.94413016  0.58295225  0.22723207    -0.11930
C1635       C  0.92410823  0.59954661  0.21330940     0.02180
C1636       C  0.90572820  0.61668108  0.22938005    -0.00140
C1637       C  0.91164241  0.62018879  0.25822516    -0.11870
C1638       C  0.93461441  0.60744026  0.27061840     0.02070
H1639       H  0.95686190  0.56843814  0.21533104     0.15050
H1640       H  0.89955342  0.63415648  0.27126036     0.15050
C1641       C  0.94834043  0.62336464  0.29255151     0.36700
C1642       C  0.92455742  0.59991060  0.18281521     0.36610
N1643       N  0.95951054  0.63927205  0.30742000    -0.43640
N1644       N  0.92508324  0.60020581  0.15838331    -0.43640
C1645       C  0.94983475  0.47222077  0.25370352    -0.00050
C1646       C  0.95632502  0.45898428  0.22800608    -0.11930
C1647       C  0.93839906  0.43834506  0.21604435     0.02180
C1648       C  0.91365397  0.43024593  0.23004620    -0.00140
C1649       C  0.90755913  0.44279643  0.25588099    -0.11870
C1650       C  0.92491719  0.46353302  0.26770346     0.02070
H1651       H  0.97544019  0.46464732  0.21725668     0.15050
H1652       H  0.88827647  0.43719210  0.26643693     0.15050
C1653       C  0.91596899  0.47503653  0.29439787     0.36700
C1654       C  0.94587950  0.42558871  0.18952065     0.36610
N1655       N  0.90857765  0.48404473  0.31575395    -0.43640
N1656       N  0.95181503  0.41536362  0.16823302    -0.43640
C1657       C  0.09288340  0.45753413  0.34304295    -0.00050
C1658       C  0.12119603  0.45196249  0.33770382    -0.11930
C1659       C  0.13454556  0.42860397  0.34967917     0.02180
C1660       C  0.11913830  0.40968192  0.36658311    -0.00140
C1661       C  0.09114254  0.41601546  0.37258630    -0.11870
C1662       C  0.07831756  0.44000157  0.36186399     0.02070
H1663       H  0.13286473  0.46559702  0.32371725     0.15050
H1664       H  0.07896470  0.40214806  0.38579956     0.15050
C1665       C  0.05089134  0.44676175  0.37215377     0.36700
C1666       C  0.16409980  0.42514900  0.34482165     0.36610
N1667       N  0.02932076  0.45198306  0.38154311    -0.43640
N1668       N  0.18778775  0.42242513  0.34088697    -0.43640
C1669       C  0.08091756  0.45315018  0.24708958    -0.00050
C1670       C  0.07972748  0.42344333  0.24757710    -0.11930
C1671       C  0.10165229  0.40714948  0.23698632     0.02180
C1672       C  0.12537557  0.42057089  0.22571648    -0.00140
C1673       C  0.12650275  0.45009493  0.22522899    -0.11870
C1674       C  0.10462766  0.46634639  0.23522445     0.02070
H1675       H  0.06192135  0.41281222  0.25683260     0.15050
H1676       H  0.14481520  0.46069424  0.21689126     0.15050
C1677       C  0.10753798  0.49645017  0.23244898     0.36700
C1678       C  0.09915323  0.37686213  0.23759987     0.36610
N1679       N  0.11064931  0.52042750  0.22955311    -0.43640
N1680       N  0.09720061  0.35256926  0.23813987    -0.43640
C1681       C  0.09359956  0.58130842  0.25136684    -0.00050
C1682       C  0.12150054  0.58356844  0.26112602    -0.11930
C1683       C  0.13975104  0.60378690  0.25018641     0.02180
C1684       C  0.13028162  0.62235722  0.22901755    -0.00140
C1685       C  0.10255569  0.62047975  0.21926863    -0.11870
C1686       C  0.08408349  0.60041980  0.23034857     0.02070
H1687       H  0.12923151  0.56944415  0.27735279     0.15050
H1688       H  0.09548373  0.63444204  0.20258980     0.15050
C1689       C  0.05557353  0.60036522  0.21974613     0.36700
C1690       C  0.16843706  0.60450688  0.26034465     0.36610
N1691       N  0.03271494  0.60053330  0.21127494    -0.43640
N1692       N  0.19142205  0.60504898  0.26844034    -0.43640
C1693       C  0.93040113  0.63662121  0.37344485    -0.00050
C1694       C  0.95812914  0.64616969  0.37033727    -0.11930
C1695       C  0.97932671  0.62780776  0.36235952     0.02180
C1696       C  0.97289265  0.59914806  0.35767817    -0.00140
C1697       C  0.94548561  0.58927157  0.36254668    -0.11870
C1698       C  0.92423431  0.60782292  0.37031740     0.02070
H1699       H  0.96307452  0.66828999  0.37363030     0.15050
H1700       H  0.94026945  0.56731282  0.35865431     0.15050
C1701       C  0.89633872  0.59703505  0.37484919     0.36700
C1702       C  0.00661683  0.63946774  0.35630366     0.36610
N1703       N  0.87394209  0.58845877  0.37852851    -0.43640
N1704       N  0.02832795  0.64900458  0.35117969    -0.43640
C1705       C  0.20310586  0.62349424  0.15885170    -0.00050
C1706       C  0.22813906  0.61098642  0.16741221    -0.11930
C1707       C  0.24025061  0.58959523  0.15140816     0.02180
C1708       C  0.22744570  0.58029641  0.12546428    -0.00140
C1709       C  0.20271307  0.59363824  0.11649258    -0.11870
C1710       C  0.19043384  0.61480249  0.13299847     0.02070
H1711       H  0.23760111  0.61701560  0.18755178     0.15050
H1712       H  0.19282283  0.58747402  0.09663253     0.15050
C1713       C  0.16458457  0.62719308  0.12318086     0.36700
C1714       C  0.26577207  0.57771534  0.16284145     0.36610
N1715       N  0.14383269  0.63713986  0.11540270    -0.43640
N1716       N  0.28620701  0.56832789  0.17211787    -0.43640
C1717       C  0.19983251  0.42670331  0.15821034    -0.00050
C1718       C  0.20109980  0.45557586  0.16468275    -0.11930
C1719       C  0.21233935  0.47496040  0.14582549     0.02180
C1720       C  0.22225661  0.46571975  0.11957333    -0.00140
C1721       C  0.22046690  0.43689198  0.11268873    -0.11870
C1722       C  0.20960831  0.41730485  0.13193485     0.02070
H1723       H  0.19349340  0.46298722  0.18485777     0.15050
H1724       H  0.22878401  0.42952328  0.09282343     0.15050
C1725       C  0.20887586  0.38783363  0.12447660     0.36700
C1726       C  0.21341388  0.50417699  0.15413989     0.36610
N1727       N  0.20837968  0.36416042  0.11861238    -0.43640
N1728       N  0.21377477  0.52740444  0.16153316    -0.43640
C1729       C  0.32616056  0.44698358  0.10964719    -0.00050
C1730       C  0.34870481  0.45665406  0.12673313    -0.11930
C1731       C  0.36147054  0.43900278  0.14664981     0.02180
C1732       C  0.35130830  0.41142747  0.15016406    -0.00140
C1733       C  0.32909941  0.40157831  0.13310414    -0.11870
C1734       C  0.31672603  0.41877945  0.11271824     0.02070
H1735       H  0.35625307  0.47814220  0.12481884     0.15050
H1736       H  0.32210274  0.37987120  0.13504200     0.15050
C1737       C  0.29493565  0.40640522  0.09502304     0.36700
C1738       C  0.38488081  0.44950789  0.16329160     0.36610
N1739       N  0.27761498  0.39630979  0.08083455    -0.43640
N1740       N  0.40366957  0.45786820  0.17666156    -0.43640
C1741       C  0.41519883  0.71142168  0.14963300    -0.00050
C1742       C  0.44257389  0.70110566  0.14787319    -0.11930
C1743       C  0.46063723  0.71043039  0.12674150     0.02180
C1744       C  0.45117721  0.73016077  0.10665360    -0.00140
C1745       C  0.42389383  0.74090989  0.10904094    -0.11870
C1746       C  0.40595809  0.73170826  0.13013813     0.02070
H1747       H  0.44947721  0.68496380  0.16249592     0.15050
H1748       H  0.41632961  0.75656976  0.09422285     0.15050
C1749       C  0.37752028  0.74183896  0.13001657     0.36700
C1750       C  0.48839236  0.69898672  0.12606387     0.36610
N1751       N  0.35467352  0.74976473  0.12975352    -0.43640
N1752       N  0.51069297  0.68975728  0.12610451    -0.43640
C1753       C  0.32405651  0.59725917  0.11344516    -0.00050
C1754       C  0.35029245  0.59047643  0.12544595    -0.11930
C1755       C  0.36352582  0.60839133  0.14521670     0.02180
C1756       C  0.35019188  0.63325292  0.15387965    -0.00140
C1757       C  0.32391501  0.63985731  0.14234546    -0.11870
C1758       C  0.31093094  0.62253720  0.12213593     0.02070
H1759       H  0.36061630  0.57120003  0.11931134     0.15050
H1760       H  0.31396081  0.65941799  0.14832862     0.15050
C1761       C  0.28421840  0.63173380  0.11091707     0.36700
C1762       C  0.39073849  0.60090636  0.15634874     0.36610
N1763       N  0.26287247  0.63928133  0.10200343    -0.43640
N1764       N  0.41259052  0.59495550  0.16524336    -0.43640
C1765       C  0.23073820  0.74035241  0.26645928    -0.00050
C1766       C  0.23399346  0.74102642  0.23677383    -0.11930
C1767       C  0.21747995  0.72348420  0.21874473     0.02180
C1768       C  0.19704780  0.70499670  0.23040703    -0.00140
C1769       C  0.18906475  0.71136093  0.25838180    -0.11870
C1770       C  0.20408424  0.73085571  0.27514097     0.02070
H1771       H  0.25120228  0.75281345  0.22779759     0.15050
H1772       H  0.17112880  0.70156551  0.26791758     0.15050
C1773       C  0.18930361  0.74376634  0.29813423     0.36700
C1774       C  0.22249085  0.72489305  0.18881604     0.36610
N1775       N  0.17663315  0.75380218  0.31617298    -0.43640
N1776       N  0.22667675  0.72616267  0.16483490    -0.43640
C1777       C  0.34011085  0.70987989  0.22419215    -0.00050
C1778       C  0.31161198  0.70275335  0.22437976    -0.11930
C1779       C  0.29337400  0.71379356  0.24422511     0.02180
C1780       C  0.30126473  0.73795929  0.26063196    -0.00140
C1781       C  0.33055108  0.74323183  0.26243862    -0.11870
C1782       C  0.34978034  0.72955407  0.24473026     0.02070
H1783       H  0.30328656  0.68721278  0.20963194     0.15050
H1784       H  0.33862881  0.75866508  0.27743520     0.15050
C1785       C  0.37918483  0.73587195  0.24862899     0.36700
C1786       C  0.26976575  0.69561079  0.24927283     0.36610
N1787       N  0.40275850  0.74101593  0.25177131    -0.43640
N1788       N  0.25183094  0.67922954  0.25133109    -0.43640
C1789       C  0.30876922  0.80458765  0.26468932    -0.00050
C1790       C  0.31463169  0.79709302  0.23645460    -0.11930
C1791       C  0.33497667  0.81186457  0.22071271     0.02180
C1792       C  0.35177139  0.83342356  0.23387043    -0.00140
C1793       C  0.34382455  0.84156010  0.26121204    -0.11870
C1794       C  0.31883343  0.83155923  0.27253264     0.02070
H1795       H  0.30294519  0.78021772  0.22621539     0.15050
H1796       H  0.35387199  0.85907922  0.27195789     0.15050
C1797       C  0.29860040  0.85370177  0.27508931     0.36700
C1798       C  0.33623775  0.80556844  0.19094552     0.36610
N1799       N  0.28314435  0.87233837  0.27496265    -0.43640
N1800       N  0.33696592  0.80055461  0.16703327    -0.43640
C1801       C  0.19669053  0.70027588  0.36679421    -0.00050
C1802       C  0.20707441  0.69040119  0.34074102    -0.11930
C1803       C  0.22931365  0.70457292  0.32734371     0.02180
C1804       C  0.23666214  0.73223109  0.33579293    -0.00140
C1805       C  0.23218092  0.73744511  0.36464740    -0.11870
C1806       C  0.21308168  0.72160004  0.38027200     0.02070
H1807       H  0.20010314  0.67055134  0.33185849     0.15050
H1808       H  0.24519340  0.75194570  0.37613864     0.15050
C1809       C  0.21402031  0.72513639  0.41061025     0.36700
C1810       C  0.25034456  0.68727236  0.31483204     0.36610
N1811       N  0.21520057  0.72766231  0.43491973    -0.43640
N1812       N  0.26809154  0.67256508  0.30764790    -0.43640
C1813       C  0.12287065  0.62163211  0.37960286    -0.00050
C1814       C  0.09447395  0.62012467  0.38796267    -0.11930
C1815       C  0.07627018  0.59929350  0.37772667     0.02180
C1816       C  0.08517310  0.58112617  0.35653486    -0.00140
C1817       C  0.11342397  0.58123930  0.34885028    -0.11870
C1818       C  0.13253949  0.60057144  0.36090222     0.02070
H1819       H  0.08571358  0.63566893  0.40197815     0.15050
H1820       H  0.12040967  0.56661491  0.33282205     0.15050
C1821       C  0.16165994  0.59779313  0.35380400     0.36700
C1822       C  0.04882763  0.59646918  0.38980521     0.36610
N1823       N  0.18497011  0.59539797  0.34796268    -0.43640
N1824       N  0.02725467  0.59382960  0.40032797    -0.43640
C1825       C  0.63226340  0.85177264  0.94418639    -0.00050
C1826       C  0.60310689  0.85568069  0.94369130    -0.11930
C1827       C  0.58617160  0.84581870  0.96526944     0.02180
C1828       C  0.59796768  0.82982412  0.98756088    -0.00140
C1829       C  0.62730867  0.82719460  0.98902321    -0.11870
C1830       C  0.64448711  0.83819292  0.96774361     0.02070
H1831       H  0.59314887  0.86606936  0.92586545     0.15050
H1832       H  0.63684383  0.81630670  0.00670237     0.15050
C1833       C  0.67444617  0.83573759  0.97089012     0.36700
C1834       C  0.55667731  0.85216463  0.96318789     0.36610
N1835       N  0.69847252  0.83384266  0.97362073    -0.43640
N1836       N  0.53321661  0.85791862  0.96151079    -0.43640
C1837       C  0.58344394  0.94728562  0.84469203    -0.00050
C1838       C  0.60272614  0.95875614  0.86433503    -0.11930
C1839       C  0.62518364  0.94267136  0.87467561     0.02180
C1840       C  0.62901653  0.91489365  0.86476333    -0.00140
C1841       C  0.61079829  0.90415293  0.84387641    -0.11870
C1842       C  0.58813774  0.91982837  0.83393806     0.02070
H1843       H  0.59991009  0.98004308  0.87208097     0.15050
H1844       H  0.61344961  0.88276763  0.83628084     0.15050
C1845       C  0.57062413  0.90725655  0.81205499     0.36700
C1846       C  0.64382182  0.95486296  0.89572447     0.36610
N1847       N  0.55673167  0.89721143  0.79442694    -0.43640
N1848       N  0.65877136  0.96459760  0.91263036    -0.43640
C1849       C  0.42089992  0.84990241  0.94592499    -0.00050
C1850       C  0.44593505  0.83710946  0.93810499    -0.11930
C1851       C  0.46307669  0.82381109  0.95805770     0.02180
C1852       C  0.45527491  0.82301253  0.98677235    -0.00140
C1853       C  0.42971833  0.83510248  0.99456893    -0.11870
C1854       C  0.41265975  0.84878977  0.97437114     0.02070
H1855       H  0.45227507  0.83781745  0.91619228     0.15050
H1856       H  0.42342507  0.83441500  0.01646629     0.15050
C1857       C  0.38726134  0.86217227  0.98324449     0.36700
C1858       C  0.48823389  0.81062554  0.94806690     0.36610
N1859       N  0.36689970  0.87305333  0.99023446    -0.43640
N1860       N  0.50822250  0.80019370  0.93947314    -0.43640
C1861       C  0.42378112  0.92784493  0.87818897    -0.00050
C1862       C  0.45288129  0.92920325  0.88296533    -0.11930
C1863       C  0.46913859  0.95105542  0.87211898     0.02180
C1864       C  0.45666720  0.97120698  0.85400803    -0.00140
C1865       C  0.42734699  0.97102392  0.85079574    -0.11870
C1866       C  0.41086148  0.95012412  0.86341192     0.02070
H1867       H  0.46334196  0.91260628  0.89459581     0.15050
H1868       H  0.41727062  0.98703994  0.83802324     0.15050
C1869       C  0.38086818  0.95305826  0.86220822     0.36700
C1870       C  0.49864002  0.95110697  0.87927866     0.36610
N1871       N  0.35689412  0.95631260  0.86172257    -0.43640
N1872       N  0.52208899  0.95090012  0.88579120    -0.43640
C1873       C  0.22347803  0.59163116  0.99391744    -0.00050
C1874       C  0.22501723  0.62120827  0.99182013    -0.11930
C1875       C  0.21811710  0.63505501  0.96660196     0.02180
C1876       C  0.20953372  0.61929129  0.94271668    -0.00140
C1877       C  0.20871333  0.58979972  0.94447939    -0.11870
C1878       C  0.21545874  0.57588489  0.96960703     0.02070
H1879       H  0.23144992  0.63371559  0.01002620     0.15050
H1880       H  0.20227751  0.57753230  0.92609441     0.15050
C1881       C  0.21409792  0.54549782  0.96928350     0.36700
C1882       C  0.21888708  0.66544012  0.96615498     0.36610
N1883       N  0.21287803  0.52116067  0.96853012    -0.43640
N1884       N  0.21954408  0.68979566  0.96572651    -0.43640
C1885       C  0.20987920  0.36161244  0.85716982    -0.00050
C1886       C  0.23134851  0.37011394  0.83894846    -0.11930
C1887       C  0.24674652  0.35015642  0.82368075     0.02180
C1888       C  0.24074440  0.32120811  0.82661053    -0.00140
C1889       C  0.21920736  0.31283710  0.84471408    -0.11870
C1890       C  0.20374808  0.33268306  0.85978325     0.02070
H1891       H  0.23613120  0.39234583  0.83674999     0.15050
H1892       H  0.21430794  0.29061732  0.84686198     0.15050
C1893       C  0.18127754  0.32296354  0.87741179     0.36700
C1894       C  0.26849009  0.35971896  0.80510151     0.36610
N1895       N  0.16315517  0.31525788  0.89146000    -0.43640
N1896       N  0.28598846  0.36728279  0.79020472    -0.43640
C1897       C  0.19669437  0.41798633  0.94732071    -0.00050
C1898       C  0.22430126  0.41241609  0.95639869    -0.11930
C1899       C  0.23512729  0.42347214  0.98175287     0.02180
C1900       C  0.21988670  0.44375301  0.99697571    -0.00140
C1901       C  0.19186285  0.44804463  0.98938045    -0.11870
C1902       C  0.17962962  0.43360393  0.96627000     0.02070
H1903       H  0.23803613  0.39967214  0.94381265     0.15050
H1904       H  0.17921918  0.46183686  0.00219869     0.15050
C1905       C  0.14941897  0.43358197  0.96427572     0.36700
C1906       C  0.26155938  0.41273292  0.99188220     0.36610
N1907       N  0.12520168  0.43357241  0.96281946    -0.43640
N1908       N  0.28202768  0.40282641  0.00040234    -0.43640
C1909       C  0.92516390  0.40783315  0.72962200    -0.00050
C1910       C  0.92062466  0.43662374  0.72527130    -0.11930
C1911       C  0.93992169  0.45681224  0.73564473     0.02180
C1912       C  0.96445907  0.44805954  0.75012352    -0.00140
C1913       C  0.96892268  0.41897393  0.75359672    -0.11870
C1914       C  0.94964531  0.39908608  0.74375802     0.02070
H1915       H  0.90212725  0.44327018  0.71361207     0.15050
H1916       H  0.98748226  0.41138614  0.76452298     0.15050
C1917       C  0.95613115  0.36962593  0.74743148     0.36700
C1918       C  0.93368246  0.48606119  0.73130239     0.36610
N1919       N  0.96160259  0.34609853  0.75016083    -0.43640
N1920       N  0.92802888  0.50942571  0.72791825    -0.43640
C1921       C  0.08700254  0.46596859  0.75423845    -0.00050
C1922       C  0.07599621  0.43857921  0.75632369    -0.11930
C1923       C  0.09128695  0.41526664  0.74759853     0.02180
C1924       C  0.11791767  0.41909186  0.73572511    -0.00140
C1925       C  0.12904700  0.44645571  0.73340476    -0.11870
C1926       C  0.11397905  0.46985892  0.74310455     0.02070
H1927       H  0.05568998  0.43524424  0.76573717     0.15050
H1928       H  0.14934529  0.44951383  0.72387475     0.15050
C1929       C  0.12621868  0.49760656  0.74089811     0.36700
C1930       C  0.07929441  0.38749397  0.75117417     0.36610
N1931       N  0.13607350  0.51984953  0.73906626    -0.43640
N1932       N  0.06977579  0.36522946  0.75411590    -0.43640
C1933       C  0.08382357  0.59627193  0.85109871    -0.00050
C1934       C  0.10758106  0.58006840  0.85689718    -0.11930
C1935       C  0.13247607  0.59244888  0.86633006     0.02180
C1936       C  0.13393212  0.62183671  0.87069454    -0.00140
C1937       C  0.11043565  0.63837478  0.86419720    -0.11870
C1938       C  0.08547180  0.62578742  0.85412275     0.02070
H1939       H  0.10723766  0.55768590  0.85238051     0.15050
H1940       H  0.11157225  0.66100991  0.86711154     0.15050
C1941       C  0.06192370  0.64338209  0.84703984     0.36700
C1942       C  0.15663976  0.57457417  0.86985555     0.36610
N1943       N  0.04300945  0.65741676  0.84125346    -0.43640
N1944       N  0.17591746  0.56017708  0.87258437    -0.43640
C1945       C  0.13141996  0.43219131  0.86448966    -0.00050
C1946       C  0.12658401  0.46035171  0.87231441    -0.11930
C1947       C  0.10097634  0.47336539  0.86689162     0.02180
C1948       C  0.08031608  0.45960282  0.85006132    -0.00140
C1949       C  0.08529599  0.43176360  0.84129232    -0.11870
C1950       C  0.11002098  0.41773546  0.84907228     0.02070
H1951       H  0.14265184  0.47232908  0.88355474     0.15050
H1952       H  0.06967779  0.42077160  0.82844085     0.15050
C1953       C  0.11208993  0.38828073  0.84188652     0.36700
C1954       C  0.09648591  0.50046332  0.87990015     0.36610
N1955       N  0.11362883  0.36464564  0.83615214    -0.43640
N1956       N  0.09279615  0.52172731  0.89118976    -0.43640
C1957       C  0.13602626  0.62444224  0.73138220    -0.00050
C1958       C  0.12135663  0.60496353  0.71386182    -0.11930
C1959       C  0.10366544  0.58436258  0.72527232     0.02180
C1960       C  0.10193578  0.58161665  0.75475911    -0.00140
C1961       C  0.11960755  0.59815525  0.77210936    -0.11870
C1962       C  0.13604550  0.61972072  0.76093593     0.02070
H1963       H  0.12208118  0.60708859  0.69109292     0.15050
H1964       H  0.11873222  0.59597657  0.79489216     0.15050
C1965       C  0.15051815  0.63781611  0.78089560     0.36700
C1966       C  0.08688187  0.56700072  0.70638910     0.36610
N1967       N  0.16240289  0.65209434  0.79694197    -0.43640
N1968       N  0.07334878  0.55313596  0.69127235    -0.43640
C1969       C  0.24321128  0.72958124  0.83040438    -0.00050
C1970       C  0.25186800  0.70156404  0.82741493    -0.11930
C1971       C  0.23862055  0.67987665  0.84243903     0.02180
C1972       C  0.21619874  0.68618720  0.86043858    -0.00140
C1973       C  0.20714744  0.71399563  0.86281086    -0.11870
C1974       C  0.22055990  0.73565186  0.84827431     0.02070
H1975       H  0.26930865  0.69679593  0.81384631     0.15050
H1976       H  0.18991980  0.71887714  0.87663751     0.15050
C1977       C  0.21174818  0.76421270  0.85343749     0.36700
C1978       C  0.24815022  0.65134404  0.83897899     0.36610
N1979       N  0.20508293  0.78700692  0.85856986    -0.43640
N1980       N  0.25574471  0.62844030  0.83620893    -0.43640
C1981       C  0.22874260  0.74818067  0.77260007    -0.00050
C1982       C  0.20173584  0.74084561  0.78171428    -0.11930
C1983       C  0.18354601  0.72417343  0.76526578     0.02180
C1984       C  0.19221363  0.71370256  0.73900549    -0.00140
C1985       C  0.21927874  0.72012554  0.72982166    -0.11870
C1986       C  0.23765777  0.73678358  0.74652952     0.02070
H1987       H  0.19442521  0.74823290  0.80175176     0.15050
H1988       H  0.22632696  0.71143936  0.70996637     0.15050
C1989       C  0.26628618  0.73945136  0.73761889     0.36700
C1990       C  0.15590332  0.71814868  0.77581489     0.36610
N1991       N  0.28929025  0.74061249  0.73034885    -0.43640
N1992       N  0.13377475  0.71332703  0.78428680    -0.43640
C1993       C  0.31444509  0.80887908  0.83783109    -0.00050
C1994       C  0.31492052  0.83800910  0.83180863    -0.11930
C1995       C  0.33468344  0.85634563  0.84485080     0.02180
C1996       C  0.35673393  0.84518293  0.86182700    -0.00140
C1997       C  0.35766184  0.81577926  0.86438194    -0.11870
C1998       C  0.33349325  0.79987961  0.85919090     0.02070
H1999       H  0.29954930  0.84657528  0.81717980     0.15050
H2000       H  0.37423750  0.80613903  0.87678483     0.15050
C2001       C  0.32326023  0.79010530  0.88586084     0.36700
C2002       C  0.33113935  0.88603066  0.84032004     0.36610
N2003       N  0.31700423  0.78455076  0.90871787    -0.43640
N2004       N  0.32743625  0.90964536  0.83592742    -0.43640
C2005       C  0.33840179  0.92010481  0.66404202    -0.00050
C2006       C  0.32842030  0.94724394  0.66927956    -0.11930
C2007       C  0.31702830  0.96361038  0.64743482     0.02180
C2008       C  0.31636556  0.95315453  0.61929447    -0.00140
C2009       C  0.32603383  0.92566511  0.61435425    -0.11870
C2010       C  0.33681114  0.90916587  0.63637229     0.02070
H2011       H  0.32959992  0.95567732  0.69059711     0.15050
H2012       H  0.32527447  0.91693626  0.59315727     0.15050
C2013       C  0.34701934  0.88138173  0.62991436     0.36700
C2014       C  0.30551909  0.99054251  0.65506032     0.36610
N2015       N  0.35518530  0.85908988  0.62482413    -0.43640
N2016       N  0.29645751  0.01205919  0.66168960    -0.43640
C2017       C  0.42341980  0.91286644  0.72547029    -0.00050
C2018       C  0.43127262  0.90897530  0.75388913    -0.11930
C2019       C  0.45358582  0.92412214  0.76623892     0.02180
C2020       C  0.46758611  0.94534190  0.75069049    -0.00140
C2021       C  0.46128281  0.94776898  0.72177868    -0.11870
C2022       C  0.44027600  0.93106999  0.70889219     0.02070
H2023       H  0.41930875  0.89484244  0.76707767     0.15050
H2024       H  0.47268829  0.96292988  0.70919108     0.15050
C2025       C  0.43698264  0.93283406  0.67857375     0.36700
C2026       C  0.46093989  0.91754640  0.79512792     0.36610
N2027       N  0.43433945  0.93434588  0.65428666    -0.43640
N2028       N  0.46699899  0.91151450  0.81804954    -0.43640
C2029       C  0.31171039  0.80600009  0.76990740    -0.00050
C2030       C  0.30670514  0.80606491  0.74040243    -0.11930
C2031       C  0.32313511  0.82267510  0.72223721     0.02180
C2032       C  0.34542560  0.83952011  0.73351822    -0.00140
C2033       C  0.35447573  0.83284677  0.76116312    -0.11870
C2034       C  0.33952631  0.81359699  0.77772614     0.02070
H2035       H  0.28853602  0.79528493  0.73163125     0.15050
H2036       H  0.37377551  0.84149088  0.76983958     0.15050
C2037       C  0.35616989  0.79586094  0.79591021     0.36700
C2038       C  0.31694668  0.82114753  0.69233693     0.36610
N2039       N  0.37029430  0.78122656  0.80932559    -0.43640
N2040       N  0.31186439  0.81978712  0.66838911    -0.43640
C2041       C  0.41813660  0.69919945  0.94929871    -0.00050
C2042       C  0.42249909  0.69378115  0.97826207    -0.11930
C2043       C  0.44600220  0.70404705  0.99314936     0.02180
C2044       C  0.46566482  0.72177977  0.97959801    -0.00140
C2045       C  0.46176239  0.72675106  0.95044456    -0.11870
C2046       C  0.43866573  0.71539499  0.93524965     0.02070
H2047       H  0.40704467  0.68179063  0.98981713     0.15050
H2048       H  0.47660982  0.73999652  0.93944106     0.15050
C2049       C  0.43702442  0.72038231  0.90523984     0.36700
C2050       C  0.44854687  0.69619246  0.02251896     0.36610
N2051       N  0.43583376  0.72450917  0.88117922    -0.43640
N2052       N  0.45024833  0.68929976  0.04589902    -0.43640
C2053       C  0.34129387  0.62861204  0.95344385    -0.00050
C2054       C  0.34689154  0.62718924  0.98262914    -0.11930
C2055       C  0.33475999  0.60651710  0.99952470     0.02180
C2056       C  0.31539816  0.58693385  0.98762138    -0.00140
C2057       C  0.31049526  0.58762807  0.95819468    -0.11870
C2058       C  0.32338976  0.60797106  0.94110170     0.02070
H2059       H  0.36049671  0.64279950  0.99263399     0.15050
H2060       H  0.29600325  0.57265165  0.94849079     0.15050
C2061       C  0.31816874  0.60682833  0.91101151     0.36700
C2062       C  0.34301905  0.60624635  0.02896620     0.36610
N2063       N  0.31393772  0.60590852  0.88689071    -0.43640
N2064       N  0.35033652  0.60643401  0.05236421    -0.43640
C2065       C  0.33142202  0.71043810  0.88691768    -0.00050
C2066       C  0.30534288  0.72042486  0.89551105    -0.11930
C2067       C  0.28925186  0.73812571  0.87810881     0.02180
C2068       C  0.29887186  0.74548934  0.85082123    -0.00140
C2069       C  0.32415298  0.73379558  0.84164404    -0.11870
C2070       C  0.34056536  0.71684825  0.85947692     0.02070
H2071       H  0.29835867  0.71585862  0.91672607     0.15050
H2072       H  0.33129153  0.73828758  0.82048976     0.15050
C2073       C  0.36637823  0.70563262  0.84889550     0.36700
C2074       C  0.26622934  0.75228559  0.89125987     0.36610
N2075       N  0.38702430  0.69651650  0.84040343    -0.43640
N2076       N  0.24889354  0.76383235  0.90345950    -0.43640
C2077       C  0.07508989  0.72157683  0.62624259    -0.00050
C2078       C  0.10396696  0.72419168  0.62170209    -0.11930
C2079       C  0.12343028  0.71551023  0.64218828     0.02180
C2080       C  0.11395850  0.70402078  0.66779463    -0.00140
C2081       C  0.08495757  0.70144998  0.67220372    -0.11870
C2082       C  0.06556667  0.70998448  0.65162428     0.02070
H2083       H  0.11133332  0.73359931  0.60229702     0.15050
H2084       H  0.07743088  0.69239060  0.69170322     0.15050
C2085       C  0.03616060  0.70534267  0.65646896     0.36700
C2086       C  0.15288239  0.71795422  0.63610869     0.36610
N2087       N  0.01272808  0.70081350  0.66048656    -0.43640
N2088       N  0.17649407  0.71995837  0.63126374    -0.43640
C2089       C  0.07957999  0.72258306  0.47678334    -0.00050
C2090       C  0.10157168  0.70609960  0.48758024    -0.11930
C2091       C  0.12236441  0.69579796  0.46983555     0.02180
C2092       C  0.12145032  0.70201116  0.44078191    -0.00140
C2093       C  0.09966115  0.71848994  0.42991804    -0.11870
C2094       C  0.07876233  0.72869855  0.44750059     0.02070
H2095       H  0.10296411  0.70179909  0.51003317     0.15050
H2096       H  0.09835545  0.72240146  0.40736938     0.15050
C2097       C  0.05615826  0.74440439  0.43464065     0.36700
C2098       C  0.14459837  0.67901428  0.48179777     0.36610
N2099       N  0.03797916  0.75688072  0.42436229    -0.43640
N2100       N  0.16250611  0.66559372  0.49128016    -0.43640
C2101       C  0.96737671  0.71970386  0.48776771    -0.00050
C2102       C  0.93890329  0.72698120  0.48938186    -0.11930
C2103       C  0.91953692  0.71847486  0.46834101     0.02180
C2104       C  0.92884789  0.70287701  0.44498547    -0.00140
C2105       C  0.95752423  0.69593419  0.44362835    -0.11870
C2106       C  0.97646305  0.70352965  0.46498073     0.02070
H2107       H  0.93197346  0.74018453  0.50661618     0.15050
H2108       H  0.96533398  0.68428107  0.42569331     0.15050
C2109       C  0.00497267  0.69396615  0.46317813     0.36700
C2110       C  0.89050775  0.72596671  0.47121730     0.36610
N2111       N  0.02747420  0.68534673  0.46156208    -0.43640
N2112       N  0.86723417  0.73205319  0.47350117    -0.43640
C2113       C  0.21172729  0.84333828  0.72189621    -0.00050
C2114       C  0.19812908  0.82527960  0.74073990    -0.11930
C2115       C  0.21283356  0.81111938  0.76231248     0.02180
C2116       C  0.24265552  0.81196413  0.76389950    -0.00140
C2117       C  0.25466520  0.83501846  0.74961348    -0.11870
C2118       C  0.24063464  0.84866733  0.72724407     0.02070
H2119       H  0.17545256  0.82373144  0.73995989     0.15050
H2120       H  0.27514283  0.84282908  0.75555925     0.15050
C2121       C  0.25712836  0.86699149  0.70972900     0.36700
C2122       C  0.19612182  0.80353554  0.78615556     0.36610
N2123       N  0.26997936  0.88195359  0.69558648    -0.43640
N2124       N  0.18104842  0.79935320  0.80459427    -0.43640
C2125       C  0.13471126  0.84093202  0.64657899    -0.00050
C2126       C  0.14301891  0.83039844  0.62039575    -0.11930
C2127       C  0.12330385  0.82089902  0.60041776     0.02180
C2128       C  0.09441501  0.82143421  0.60659843    -0.00140
C2129       C  0.08601376  0.83235483  0.63275561    -0.11870
C2130       C  0.10594892  0.84219109  0.65267096     0.02070
H2131       H  0.16508218  0.83026573  0.61529503     0.15050
H2132       H  0.06400757  0.83215591  0.63810351     0.15050
C2133       C  0.09657319  0.85333401  0.67925614     0.36700
C2134       C  0.13342530  0.81097270  0.57358568     0.36610
N2135       N  0.08912365  0.86219637  0.70064185    -0.43640
N2136       N  0.14192871  0.80312422  0.55222237    -0.43640
C2137       C  0.22387978  0.96671116  0.62212673    -0.00050
C2138       C  0.21617387  0.94195966  0.60761855    -0.11930
C2139       C  0.20422510  0.91919649  0.62158183     0.02180
C2140       C  0.19866840  0.92106363  0.65081580    -0.00140
C2141       C  0.20555899  0.94597675  0.66535567    -0.11870
C2142       C  0.21815929  0.96870190  0.65141578     0.02070
H2143       H  0.22063386  0.93969373  0.58532430     0.15050
H2144       H  0.20139917  0.94754038  0.68776547     0.15050
C2145       C  0.22555880  0.99321871  0.66809834     0.36700
C2146       C  0.19972663  0.89359370  0.60547273     0.36610
N2147       N  0.23141587  0.01276909  0.68167089    -0.43640
N2148       N  0.19630076  0.87329567  0.59223406    -0.43640
C2149       C  0.21380138  0.83020103  0.38595654    -0.00050
C2150       C  0.24050768  0.82052992  0.39383478    -0.11930
C2151       C  0.25587525  0.80326288  0.37576176     0.02180
C2152       C  0.24470773  0.79572772  0.34881087    -0.00140
C2153       C  0.21767262  0.80478283  0.34140637    -0.11870
C2154       C  0.20222011  0.82177566  0.35961131     0.02070
H2155       H  0.24916931  0.82605539  0.41444444     0.15050
H2156       H  0.20920059  0.79975131  0.32062308     0.15050
C2157       C  0.17519674  0.83162465  0.35003397     0.36700
C2158       C  0.28226519  0.79231277  0.38595019     0.36610
N2159       N  0.15353770  0.83953437  0.34236560    -0.43640
N2160       N  0.30319157  0.78329947  0.39442156    -0.43640
C2161       C  0.09879374  0.81756550  0.49558803    -0.00050
C2162       C  0.12017220  0.80057488  0.48480971    -0.11930
C2163       C  0.13855919  0.81054417  0.46461271     0.02180
C2164       C  0.13561385  0.83814964  0.45411998    -0.00140
C2165       C  0.11348461  0.85481762  0.46388676    -0.11870
C2166       C  0.09533836  0.84495937  0.48466857     0.02070
H2167       H  0.12285895  0.77918913  0.49229073     0.15050
H2168       H  0.11115798  0.87614342  0.45611795     0.15050
C2169       C  0.07424427  0.86382081  0.49502596     0.36700
C2170       C  0.16120199  0.79234664  0.45660884     0.36610
N2171       N  0.05743016  0.87903455  0.50335717    -0.43640
N2172       N  0.17925100  0.77765563  0.45020773    -0.43640
C2173       C  0.20864168  0.90948134  0.45652054    -0.00050
C2174       C  0.22827659  0.90158336  0.47708082    -0.11930
C2175       C  0.23690657  0.92036721  0.49825730     0.02180
C2176       C  0.22652429  0.94836675  0.49853239    -0.00140
C2177       C  0.20664675  0.95613808  0.47785137    -0.11870
C2178       C  0.19740107  0.93682943  0.45720583     0.02070
H2179       H  0.23583090  0.88008896  0.47741227     0.15050
H2180       H  0.19856609  0.97740094  0.47751250     0.15050
C2181       C  0.17612813  0.94531685  0.43707751     0.36700
C2182       C  0.25590124  0.90973280  0.51969076     0.36610
N2183       N  0.15899828  0.95201434  0.42097612    -0.43640
N2184       N  0.27107404  0.90107012  0.53679379    -0.43640
C2185       C  0.92155358  0.62136638  0.87605412    -0.00050
C2186       C  0.91338320  0.59844665  0.85923215    -0.11930
C2187       C  0.93304868  0.58110003  0.84660186     0.02180
C2188       C  0.96207595  0.58630363  0.85078878    -0.00140
C2189       C  0.97041401  0.60951233  0.86761731    -0.11870
C2190       C  0.95035040  0.62685656  0.88050798     0.02070
H2191       H  0.89120982  0.59420305  0.85576355     0.15050
H2192       H  0.99253714  0.61421466  0.87046332     0.15050
C2193       C  0.95962596  0.64995225  0.89822130     0.36700
C2194       C  0.92205524  0.55947758  0.82800861     0.36610
N2195       N  0.96703960  0.66845701  0.91251042    -0.43640
N2196       N  0.91144079  0.54306501  0.81314928    -0.43640
C2197       C  0.84197261  0.61380045  0.93881196    -0.00050
C2198       C  0.85104414  0.61151372  0.96705964    -0.11930
C2199       C  0.83833379  0.59237070  0.98561686     0.02180
C2200       C  0.81632199  0.57448704  0.97575848    -0.00140
C2201       C  0.80778739  0.57663008  0.94718813    -0.11870
C2202       C  0.82021581  0.59598512  0.92890055     0.02070
H2203       H  0.86815379  0.62481418  0.97463858     0.15050
H2204       H  0.79103705  0.56325451  0.93894841     0.15050
C2205       C  0.81085171  0.59648747  0.89974982     0.36700
C2206       C  0.84803345  0.59219326  0.01463587     0.36610
N2207       N  0.80335420  0.59684801  0.87639739    -0.43640
N2208       N  0.85588824  0.59222117  0.03788169    -0.43640
C2209       C  0.83590281  0.35067437  0.85582200    -0.00050
C2210       C  0.82760590  0.32438724  0.86638860    -0.11930
C2211       C  0.81109862  0.30584815  0.84988185     0.02180
C2212       C  0.80147453  0.31404735  0.82277747    -0.00140
C2213       C  0.81129384  0.33964991  0.81178015    -0.11870
C2214       C  0.82774215  0.35813523  0.82807809     0.02070
H2215       H  0.83468530  0.31804563  0.88726935     0.15050
H2216       H  0.80522628  0.34575965  0.79055793     0.15050
C2217       C  0.83472141  0.38514373  0.81607420     0.36700
C2218       C  0.80665534  0.27758268  0.86003379     0.36610
N2219       N  0.83983098  0.40670299  0.80600064    -0.43640
N2220       N  0.80360523  0.25476269  0.86797673    -0.43640
C2221       C  0.91468893  0.41804962  0.86374214    -0.00050
C2222       C  0.90475943  0.43263155  0.84014172    -0.11930
C2223       C  0.92057313  0.45380723  0.82782598     0.02180
C2224       C  0.94753915  0.46056630  0.83887345    -0.00140
C2225       C  0.95817460  0.44502895  0.86181889    -0.11870
C2226       C  0.94167660  0.42420080  0.87467456     0.02070
H2227       H  0.88372741  0.42852262  0.83222373     0.15050
H2228       H  0.97892387  0.44976238  0.87025268     0.15050
C2229       C  0.95247875  0.40977633  0.89923021     0.36700
C2230       C  0.90796455  0.46829695  0.80412647     0.36610
N2231       N  0.96105711  0.39819454  0.91896084    -0.43640
N2232       N  0.89722305  0.47982620  0.78546212    -0.43640
C2233       C  0.84184899  0.42207428  0.93291875    -0.00050
C2234       C  0.81783726  0.43605702  0.92338977    -0.11930
C2235       C  0.80514978  0.45659934  0.93991287     0.02180
C2236       C  0.81636943  0.46339229  0.96709101    -0.00140
C2237       C  0.84066483  0.44938621  0.97645445    -0.11870
C2238       C  0.85342582  0.42897883  0.95963725     0.02070
H2239       H  0.80936448  0.43143399  0.90246752     0.15050
H2240       H  0.84947097  0.45388001  0.99724048     0.15050
C2241       C  0.87805894  0.41497536  0.97042864     0.36700
C2242       C  0.78065835  0.47008828  0.92805246     0.36610
N2243       N  0.89781523  0.40373242  0.97901774    -0.43640
N2244       N  0.76100890  0.48078091  0.91850361    -0.43640
C2245       C  0.85155204  0.91995453  0.65281265    -0.00050
C2246       C  0.84832958  0.91353043  0.62410769    -0.11930
C2247       C  0.83784263  0.93309566  0.60498722     0.02180
C2248       C  0.83006502  0.96035970  0.61427832    -0.00140
C2249       C  0.83454485  0.96742374  0.64294021    -0.11870
C2250       C  0.84516321  0.94735953  0.66224068     0.02070
H2251       H  0.85344889  0.89257590  0.61663190     0.15050
H2252       H  0.82825900  0.98793699  0.65057313     0.15050
C2253       C  0.84918709  0.95515631  0.69147524     0.36700
C2254       C  0.83363312  0.92349099  0.57621804     0.36610
N2255       N  0.85251306  0.96138329  0.71494468    -0.43640
N2256       N  0.82981951  0.91492095  0.55357446    -0.43640
C2257       C  0.96065832  0.81922068  0.62449591    -0.00050
C2258       C  0.96825105  0.84010494  0.64440100    -0.11930
C2259       C  0.94790098  0.85342001  0.66075265     0.02180
C2260       C  0.91964212  0.84497206  0.65818217    -0.00140
C2261       C  0.91206827  0.82407540  0.63865500    -0.11870
C2262       C  0.93199843  0.81145064  0.62162100     0.02070
H2263       H  0.99006636  0.84624439  0.64696611     0.15050
H2264       H  0.89015839  0.81813314  0.63616698     0.15050
C2265       C  0.92159719  0.79085250  0.60154004     0.36700
C2266       C  0.95635606  0.87560495  0.68001889     0.36610
N2267       N  0.91140961  0.77520993  0.58558044    -0.43640
N2268       N  0.96301293  0.89350850  0.69540353    -0.43640
C2269       C  0.83074902  0.82734510  0.39078340    -0.00050
C2270       C  0.84089968  0.82792869  0.36321552    -0.11930
C2271       C  0.82640512  0.81430775  0.34124374     0.02180
C2272       C  0.80163755  0.79911069  0.34687389    -0.00140
C2273       C  0.79136532  0.79856953  0.37452023    -0.11870
C2274       C  0.80558538  0.81287899  0.39644202     0.02070
H2275       H  0.86005862  0.83943487  0.35881372     0.15050
H2276       H  0.77228362  0.78698071  0.37891861     0.15050
C2277       C  0.79410091  0.81245761  0.42444938     0.36700
C2278       C  0.83678531  0.81714324  0.31291249     0.36610
N2279       N  0.78478418  0.81222207  0.44687255    -0.43640
N2280       N  0.84499624  0.81983812  0.29020336    -0.43640
C2281       C  0.84936163  0.91252603  0.45220487    -0.00050
C2282       C  0.83079686  0.93021161  0.43727863    -0.11930
C2283       C  0.81740368  0.95258897  0.45083372     0.02180
C2284       C  0.82305148  0.95786069  0.47972647    -0.00140
C2285       C  0.84466105  0.94332703  0.49309268    -0.11870
C2286       C  0.85698231  0.92025773  0.48044915     0.02070
H2287       H  0.82580892  0.92594617  0.41526416     0.15050
H2288       H  0.85047388  0.94869059  0.51471172     0.15050
C2289       C  0.87532036  0.90449447  0.49887775     0.36700
C2290       C  0.79755448  0.96904386  0.43480966     0.36610
N2291       N  0.89005665  0.89335606  0.51482151    -0.43640
N2292       N  0.78200859  0.98247822  0.42174098    -0.43640
C2293       C  0.90981260  0.83191158  0.46083704    -0.00050
C2294       C  0.90531420  0.83456153  0.48993968    -0.11930
C2295       C  0.92629974  0.82823837  0.50954004     0.02180
C2296       C  0.95171403  0.81736855  0.50013236    -0.00140
C2297       C  0.95573343  0.81301512  0.47105170    -0.11870
C2298       C  0.93493149  0.82033443  0.45129105     0.02070
H2299       H  0.88550613  0.84256688  0.49724638     0.15050
H2300       H  0.97490697  0.80344717  0.46384898     0.15050
C2301       C  0.93957987  0.81566820  0.42161071     0.36700
C2302       C  0.92199463  0.83498694  0.53886943     0.36610
N2303       N  0.94308432  0.81169866  0.39779819    -0.43640
N2304       N  0.91845592  0.84149095  0.56209952    -0.43640
C2305       C  0.32499953  0.96714255  0.48313945    -0.00050
C2306       C  0.32629284  0.93806220  0.48878180    -0.11930
C2307       C  0.33446360  0.91873529  0.46779285     0.02180
C2308       C  0.34169264  0.92851135  0.44071930    -0.00140
C2309       C  0.34060064  0.95748468  0.43538411    -0.11870
C2310       C  0.33246446  0.97660837  0.45603521     0.02070
H2311       H  0.31959015  0.93029848  0.50912565     0.15050
H2312       H  0.34613105  0.96530140  0.41466119     0.15050
C2313       C  0.33206877  0.00584124  0.44822906     0.36700
C2314       C  0.33516328  0.88914076  0.47441438     0.36610
N2315       N  0.33260141  0.02880661  0.44029459    -0.43640
N2316       N  0.33563172  0.86536877  0.47964687    -0.43640
C2317       C  0.41166543  0.91956081  0.36633400    -0.00050
C2318       C  0.43542171  0.92867774  0.38199623    -0.11930
C2319       C  0.45583768  0.94586916  0.36974169     0.02180
C2320       C  0.45283394  0.95363677  0.34129626    -0.00140
C2321       C  0.42992109  0.94381385  0.32530939    -0.11870
C2322       C  0.40923260  0.92714656  0.33747866     0.02070
H2323       H  0.43756244  0.92309864  0.40411027     0.15050
H2324       H  0.42775485  0.94993416  0.30333527     0.15050
C2325       C  0.38505589  0.91992525  0.32012781     0.36700
C2326       C  0.47906357  0.95608764  0.38684743     0.36610
N2327       N  0.36584168  0.91414541  0.30601900    -0.43640
N2328       N  0.49760635  0.96443498  0.40058079    -0.43640
C2329       C  0.29806513  0.81783288  0.32771346    -0.00050
C2330       C  0.32519984  0.81038275  0.33664072    -0.11930
C2331       C  0.34109890  0.82782085  0.35481286     0.02180
C2332       C  0.33011164  0.85366005  0.36438972    -0.00140
C2333       C  0.30313694  0.86133496  0.35534874    -0.11870
C2334       C  0.28714092  0.84392193  0.33720938     0.02070
H2335       H  0.33367347  0.79032856  0.33003019     0.15050
H2336       H  0.29478516  0.88146533  0.36187517     0.15050
C2337       C  0.26005282  0.85402985  0.32809853     0.36700
C2338       C  0.36827782  0.81818378  0.36416112     0.36610
N2339       N  0.23866127  0.86283787  0.32066459    -0.43640
N2340       N  0.39007537  0.81048748  0.37164817    -0.43640
C2341       C  0.92859897  0.34061705  0.44149745    -0.00050
C2342       C  0.91288509  0.33263733  0.46495473    -0.11930
C2343       C  0.92621505  0.32313442  0.48971118     0.02180
C2344       C  0.95575101  0.32234332  0.49142246    -0.00140
C2345       C  0.97132662  0.33049490  0.46789614    -0.11870
C2346       C  0.95810636  0.33887293  0.44293293     0.02070
H2347       H  0.89022825  0.33393617  0.46394628     0.15050
H2348       H  0.99396775  0.32861365  0.46836248     0.15050
C2349       C  0.97525064  0.34406972  0.41854781     0.36700
C2350       C  0.90905499  0.31471340  0.51298401     0.36610
N2351       N  0.98878395  0.34816459  0.39888632    -0.43640
N2352       N  0.89462761  0.30825722  0.53128545    -0.43640
C2353       C  0.93252253  0.41040261  0.36705963    -0.00050
C2354       C  0.95389557  0.40224626  0.34899864    -0.11930
C2355       C  0.97383141  0.42165800  0.33989797     0.02180
C2356       C  0.97210884  0.45026602  0.34831264    -0.00140
C2357       C  0.95096970  0.45826126  0.36700901    -0.11870
C2358       C  0.93137998  0.43848110  0.37660717     0.02070
H2359       H  0.95559730  0.38029979  0.34282847     0.15050
H2360       H  0.94922196  0.48008127  0.37350737     0.15050
C2361       C  0.91017396  0.44735467  0.39605118     0.36700
C2362       C  0.99624170  0.41128032  0.32260138     0.36610
N2363       N  0.89315915  0.45437532  0.41167387    -0.43640
N2364       N  0.01420502  0.40291766  0.30882175    -0.43640
C2365       C  0.82370930  0.29988770  0.32528797    -0.00050
C2366       C  0.81614729  0.32471900  0.33932399    -0.11930
C2367       C  0.83586567  0.34040010  0.35499221     0.02180
C2368       C  0.86366170  0.33093884  0.35744569    -0.00140
C2369       C  0.87137001  0.30611567  0.34345038    -0.11870
C2370       C  0.85173124  0.29078409  0.32706629     0.02070
H2371       H  0.79464056  0.33182745  0.33806410     0.15050
H2372       H  0.89286758  0.29902494  0.34493105     0.15050
C2373       C  0.86100970  0.26647111  0.31159105     0.36700
C2374       C  0.82706284  0.36600504  0.36864437     0.36610
N2375       N  0.86869063  0.24711940  0.29907132    -0.43640
N2376       N  0.82007957  0.38659033  0.37951735    -0.43640
C2377       C  0.41042820  0.33943543  0.95570514    -0.00050
C2378       C  0.43863604  0.34792324  0.95401087    -0.11930
C2379       C  0.45896320  0.33743379  0.97305095     0.02180
C2380       C  0.45087427  0.31858388  0.99458947    -0.00140
C2381       C  0.42223189  0.31183680  0.99710279    -0.11870
C2382       C  0.40228654  0.32164348  0.97786356     0.02070
H2383       H  0.44475245  0.36266420  0.93774531     0.15050
H2384       H  0.41533985  0.29785753  0.01374301     0.15050
C2385       C  0.37333612  0.31355587  0.98169622     0.36700
C2386       C  0.48776559  0.34588588  0.96950131     0.36610
N2387       N  0.35015226  0.30713016  0.98474548    -0.43640
N2388       N  0.51077724  0.35295738  0.96652626    -0.43640
C2389       C  0.34169310  0.41369365  0.95578981    -0.00050
C2390       C  0.32652256  0.43454852  0.94141242    -0.11930
C2391       C  0.31428376  0.45696657  0.95607596     0.02180
C2392       C  0.31769136  0.45918500  0.98583749    -0.00140
C2393       C  0.33445376  0.43931206  0.99980440    -0.11870
C2394       C  0.34540033  0.41626236  0.98548183     0.02070
H2395       H  0.32369083  0.43299983  0.91868792     0.15050
H2396       H  0.33702551  0.44026543  0.02259929     0.15050
C2397       C  0.35766867  0.39424038  0.00254820     0.36700
C2398       C  0.29756298  0.47658884  0.94000745     0.36610
N2399       N  0.36736179  0.37670493  0.01640455    -0.43640
N2400       N  0.28409849  0.49220855  0.92705063    -0.43640
C2401       C  0.32930426  0.33263061  0.88714147    -0.00050
C2402       C  0.30649614  0.31565695  0.89513798    -0.11930
C2403       C  0.29051579  0.30055832  0.87479274     0.02180
C2404       C  0.29686503  0.30290221  0.84585954    -0.00140
C2405       C  0.31950214  0.32005787  0.83799920    -0.11870
C2406       C  0.33587608  0.33449250  0.85827163     0.02070
H2407       H  0.30144565  0.31389318  0.91731754     0.15050
H2408       H  0.32450133  0.32202757  0.81582507     0.15050
C2409       C  0.35943248  0.35109533  0.84898251     0.36700
C2410       C  0.26817734  0.28236651  0.88406929     0.36610
N2411       N  0.37841955  0.36430003  0.84160788    -0.43640
N2412       N  0.25029819  0.26770585  0.89151685    -0.43640
C2413       C  0.80799582  0.80364877  0.75865109    -0.00050
C2414       C  0.80867072  0.79636596  0.72986948    -0.11930
C2415       C  0.82287876  0.81342236  0.71040537     0.02180
C2416       C  0.83621224  0.83866403  0.71947601    -0.00140
C2417       C  0.83523220  0.84608306  0.74810263    -0.11870
C2418       C  0.82164389  0.82873801  0.76764213     0.02070
H2419       H  0.79804659  0.77736889  0.72260377     0.15050
H2420       H  0.84606309  0.86497050  0.75539942     0.15050
C2421       C  0.82329396  0.83635885  0.79714474     0.36700
C2422       C  0.82355188  0.80461307  0.68121561     0.36610
N2423       N  0.82504702  0.84233492  0.82082168    -0.43640
N2424       N  0.82414781  0.79749252  0.65783070    -0.43640
C2425       C  0.80780849  0.72703126  0.83178413    -0.00050
C2426       C  0.82264856  0.70455263  0.81951717    -0.11930
C2427       C  0.84088267  0.68722651  0.83501010     0.02180
C2428       C  0.84287885  0.68966341  0.86469251    -0.00140
C2429       C  0.82723829  0.71095082  0.87761463    -0.11870
C2430       C  0.81047411  0.72972597  0.86174044     0.02070
H2431       H  0.81937626  0.69898900  0.79780549     0.15050
H2432       H  0.82820117  0.71302774  0.90043906     0.15050
C2433       C  0.79561891  0.75061646  0.87759268     0.36700
C2434       C  0.85671958  0.66660341  0.81958859     0.36610
N2435       N  0.78389698  0.76634559  0.89177946    -0.43640
N2436       N  0.86996592  0.65059208  0.80717694    -0.43640
C2437       C  0.73065874  0.79892899  0.82799527    -0.00050
C2438       C  0.73837650  0.80744822  0.85548985    -0.11930
C2439       C  0.72091849  0.82421747  0.87203450     0.02180
C2440       C  0.69494757  0.83342787  0.86105419    -0.00140
C2441       C  0.68716219  0.82531439  0.83343903    -0.11870
C2442       C  0.70458025  0.80843181  0.81688332     0.02070
H2443       H  0.75888361  0.80210845  0.86354813     0.15050
H2444       H  0.66721158  0.83213581  0.82474221     0.15050
C2445       C  0.69441611  0.80064025  0.78904709     0.36700
C2446       C  0.73105098  0.83314967  0.89952756     0.36610
N2447       N  0.68549239  0.79432225  0.76703782    -0.43640
N2448       N  0.73932738  0.84032483  0.92151282    -0.43640
C2449       C  0.70276076  0.92855365  0.66344683    -0.00050
C2450       C  0.71076450  0.91542758  0.63830069    -0.11930
C2451       C  0.72063259  0.93135590  0.61560474     0.02180
C2452       C  0.72232887  0.96103360  0.61791899    -0.00140
C2453       C  0.71382297  0.97408667  0.64294417    -0.11870
C2454       C  0.70433366  0.95821577  0.66567043     0.02070
H2455       H  0.70978389  0.89265699  0.63662038     0.15050
H2456       H  0.71573015  0.99677327  0.64519015     0.15050
C2457       C  0.69800270  0.97282260  0.69161836     0.36700
C2458       C  0.73102593  0.91654972  0.59126722     0.36610
N2459       N  0.69296199  0.98451537  0.71239894    -0.43640
N2460       N  0.73955338  0.90465903  0.57186853    -0.43640
C2461       C  0.63488084  0.91728267  0.73939144    -0.00050
C2462       C  0.60952813  0.92244053  0.72466809    -0.11930
C2463       C  0.58961352  0.94100559  0.73556213     0.02180
C2464       C  0.59526346  0.95474736  0.76138681    -0.00140
C2465       C  0.61955254  0.94805777  0.77686447    -0.11870
C2466       C  0.63921284  0.92953043  0.76633471     0.02070
H2467       H  0.60607087  0.91322296  0.70390540     0.15050
H2468       H  0.62372714  0.95822258  0.79708737     0.15050
C2469       C  0.66466269  0.92575704  0.78272993     0.36700
C2470       C  0.56491180  0.94738245  0.71894463     0.36610
N2471       N  0.68489320  0.92288800  0.79613238    -0.43640
N2472       N  0.54511933  0.95261236  0.70563469    -0.43640
C2473       C  0.72093638  0.85829152  0.74016958    -0.00050
C2474       C  0.73127863  0.86584554  0.76710195    -0.11930
C2475       C  0.74732775  0.84704241  0.78326115     0.02180
C2476       C  0.75233038  0.81964172  0.77282489    -0.00140
C2477       C  0.74319028  0.81281602  0.74519206    -0.11870
C2478       C  0.72782367  0.83187747  0.72882816     0.02070
H2479       H  0.72658499  0.88646758  0.77560121     0.15050
H2480       H  0.74711598  0.79196148  0.73680584     0.15050
C2481       C  0.71795322  0.82325404  0.70113372     0.36700
C2482       C  0.75780506  0.85638369  0.81045649     0.36610
N2483       N  0.71003350  0.81641023  0.67891348    -0.43640
N2484       N  0.76588560  0.86437891  0.83223580    -0.43640
C2485       C  0.91272830  0.62292901  0.72622765    -0.00050
C2486       C  0.92701256  0.62923504  0.75139791    -0.11930
C2487       C  0.94710641  0.61115474  0.76259291     0.02180
C2488       C  0.95223919  0.58478602  0.74950375    -0.00140
C2489       C  0.93775135  0.57828144  0.72424512    -0.11870
C2490       C  0.91825180  0.59715229  0.71244971     0.02070
H2491       H  0.92406816  0.64965946  0.76126733     0.15050
H2492       H  0.94217069  0.55883908  0.71330036     0.15050
C2493       C  0.90438570  0.58983120  0.68612130     0.36700
C2494       C  0.96389100  0.62275320  0.78536514     0.36610
N2495       N  0.89329028  0.58406958  0.66496120    -0.43640
N2496       N  0.97658653  0.63452168  0.80283685    -0.43640
C2497       C  0.95300233  0.72297475  0.61691793    -0.00050
C2498       C  0.93378859  0.70193302  0.60827581    -0.11930
C2499       C  0.91629904  0.68881477  0.62782917     0.02180
C2500       C  0.91730815  0.69746691  0.65626685    -0.00140
C2501       C  0.93642904  0.71827082  0.66494641    -0.11870
C2502       C  0.95437744  0.73090522  0.64576273     0.02070
H2503       H  0.93239555  0.69579501  0.58620678     0.15050
H2504       H  0.93755543  0.72441006  0.68705283     0.15050
C2505       C  0.97343310  0.75204500  0.65687024     0.36700
C2506       C  0.89722963  0.66692658  0.61830986     0.36610
N2507       N  0.98847791  0.76831036  0.66738976    -0.43640
N2508       N  0.88196739  0.64930266  0.61078252    -0.43640
C2509       C  0.85280756  0.70807565  0.73629684    -0.00050
C2510       C  0.86539505  0.73071680  0.75107866    -0.11930
C2511       C  0.84947617  0.74841326  0.76830882     0.02180
C2512       C  0.82034488  0.74396874  0.77020607    -0.00140
C2513       C  0.80752813  0.72275967  0.75351715    -0.11870
C2514       C  0.82363348  0.70410042  0.73770089     0.02070
H2515       H  0.88780354  0.73416157  0.74960604     0.15050
H2516       H  0.78506025  0.71948872  0.75462697     0.15050
C2517       C  0.80999084  0.68035848  0.72407041     0.36700
C2518       C  0.86341288  0.77079700  0.78379206     0.36610
N2519       N  0.79917387  0.66104335  0.71352280    -0.43640
N2520       N  0.87471060  0.78886612  0.79595753    -0.43640
C2521       C  0.62533050  0.69902208  0.93263964    -0.00050
C2522       C  0.63419121  0.72056526  0.95085417    -0.11930
C2523       C  0.61547852  0.73393680  0.96854838     0.02180
C2524       C  0.58644461  0.72804306  0.96619190    -0.00140
C2525       C  0.57723486  0.70689795  0.94725898    -0.11870
C2526       C  0.59667368  0.69166663  0.93119398     0.02070
H2527       H  0.65644809  0.72510881  0.95317160     0.15050
H2528       H  0.55518179  0.70133033  0.94613953     0.15050
C2529       C  0.58718252  0.66782092  0.91462097     0.36700
C2530       C  0.62772756  0.75034777  0.99127565     0.36610
N2531       N  0.57972253  0.64846154  0.90155445    -0.43640
N2532       N  0.63917450  0.76203959  0.00961600    -0.43640
C2533       C  0.69644617  0.62938977  0.95326054    -0.00050
C2534       C  0.69807351  0.63600400  0.98219183    -0.11930
C2535       C  0.70745045  0.61611163  0.00178305     0.02180
C2536       C  0.71439363  0.58892538  0.99246469    -0.00140
C2537       C  0.71214339  0.58212491  0.96365412    -0.11870
C2538       C  0.70362996  0.60225744  0.94396404     0.02070
H2539       H  0.69239182  0.65688046  0.98936261     0.15050
H2540       H  0.71841092  0.56145788  0.95636292     0.15050
C2541       C  0.70260745  0.59469349  0.91440346     0.36700
C2542       C  0.70990909  0.62395281  0.03123755     0.36610
N2543       N  0.70193290  0.58861741  0.89071019    -0.43640
N2544       N  0.71190350  0.63015510  0.05485208    -0.43640
C2545       C  0.71189055  0.70164344  0.87691948    -0.00050
C2546       C  0.70617374  0.73021097  0.87195905    -0.11930
C2547       C  0.71664402  0.74312860  0.84799137     0.02180
C2548       C  0.74322807  0.73526391  0.83839606    -0.00140
C2549       C  0.74959773  0.70644502  0.84262660    -0.11870
C2550       C  0.73365680  0.68941553  0.86090563     0.02070
H2551       H  0.68925204  0.74062492  0.88263110     0.15050
H2552       H  0.76570945  0.69641565  0.83055754     0.15050
C2553       C  0.73939527  0.65964198  0.86138892     0.36700
C2554       C  0.69485398  0.74624920  0.82688160     0.36610
N2555       N  0.74423502  0.63580798  0.86153032    -0.43640
N2556       N  0.67649841  0.74656213  0.81065251    -0.43640
loop_ 
_geom_bond_atom_site_label_1 
_geom_bond_atom_site_label_2 
_geom_bond_distance 
_geom_bond_site_symmetry_2 
_ccdc_geom_bond_type 
C1            C2   1.410       .  A
C1            C6   1.418       .  A
C1         C2545   1.507       .  S
C2            C3   1.405       .  A
C2            H7   1.081       .  S
C3            C4   1.396       .  A
C3         C2533   1.472       .  S
C4            C5   1.392       .  A
C4            H8   1.085       .  S
C5            C6   1.401       .  A
C5         C2521   1.476       .  S
C6            H9   1.081       .  S
C10          C11   1.407       .  A
C10          C15   1.399       .  A
C10        C2509   1.482       .  S
C11          C12   1.412       .  A
C11          H16   1.083       .  S
C12          C13   1.400       .  A
C12        C2485   1.485       .  S
C13          C14   1.396       .  A
C13          H17   1.085       .  S
C14          C15   1.401       .  A
C14        C2500   1.469       .  S
C15          H18   1.084       .  S
C19          C20   1.405       .  A
C19          C24   1.404       .  A
C19        C2473   1.481       .  S
C20          C21   1.405       .  A
C20          H25   1.084       .  S
C21          C22   1.397       .  A
C21        C2449   1.479       .  S
C22          C23   1.398       .  A
C22          H26   1.084       .  S
C23          C24   1.405       .  A
C23        C2461   1.482       .  S
C24          H27   1.084       .  S
C28          C29   1.453       .  A
C28          C33   1.427       .  A
C28        C2437   1.512       .  S
C29          C30   1.446       .  A
C29        C2548   1.540       .  S
C30          C31   1.435       .  A
C30        C2425   1.544       .  S
C31          C32   1.413       .  A
C31        C2512   1.490       .  S
C32          C33   1.410       .  A
C32        C2413   1.507       .  S
C33        C2476   1.501       .  S
C34          C35   1.412       .  A
C34          C39   1.400       .  A
C34        C2389   1.493       .  S
C35          C36   1.410       .  A
C35          H40   1.083       .  S
C36          C37   1.409       .  A
C36        C2401   1.491       .  S
C37          C38   1.408       .  A
C37          H41   1.084       .  S
C38          C39   1.393       .  A
C38        C2377   1.480       .  S
C39          H42   1.084       .  S
C43          C44   1.403       .  A
C43          C48   1.391       .  A
C43        C2353   1.470       .  S
C44          C45   1.406       .  A
C44          H49   1.084       .  S
C45          C46   1.407       .  A
C45        C2368   1.481       .  S
C46          C47   1.405       .  A
C46          H50   1.081       .  S
C47          C48   1.396       .  A
C47        C2341   1.479       .  S
C48          H51   1.085       .  S
C52          C53   1.400       .  A
C52          C57   1.397       .  A
C52        C2317   1.486       .  S
C53          C54   1.404       .  A
C53          H58   1.083       .  S
C54          C55   1.416       .  A
C54        C2332   1.493       .  S
C55          C56   1.412       .  A
C55          H59   1.083       .  S
C56          C57   1.401       .  A
C56        C2308   1.491       .  S
C57          H60   1.084       .  S
C61          C62   1.402       .  A
C61          C66   1.406       .  A
C61        C2269   1.472       .  S
C62          C63   1.397       .  A
C62          H67   1.084       .  S
C63          C64   1.395       .  A
C63        C2293   1.470       .  S
C64          C65   1.397       .  A
C64          H68   1.081       .  S
C65          C66   1.413       .  A
C65        C2281   1.497       .  S
C66          H69   1.082       .  S
C70          C71   1.401       .  A
C70          C75   1.395       .  A
C70        C2260   1.476       .  S
C71          C72   1.404       .  A
C71          H76   1.084       .  S
C72          C73   1.414       .  A
C72        C2416   1.490       .  S
C73          C74   1.414       .  A
C73          H77   1.083       .  S
C74          C75   1.402       .  A
C74        C2245   1.487       .  S
C75          H78   1.085       .  S
C79          C80   1.405       .  A
C79          C84   1.404       .  A
C79        C2209   1.484       .  S
C80          C81   1.407       .  A
C80          H85   1.084       .  S
C81          C82   1.398       .  A
C81        C2233   1.479       .  S
C82          C83   1.396       .  A
C82          H86   1.085       .  S
C83          C84   1.403       .  A
C83        C2221   1.473       .  S
C84          H87   1.084       .  S
C88          C89   1.409       .  A
C88          C93   1.398       .  A
C88        C2185   1.484       .  S
C89          C90   1.416       .  A
C89          H94   1.082       .  S
C90          C91   1.413       .  A
C90        C2428   1.509       .  S
C91          C92   1.410       .  A
C91          H95   1.084       .  S
C92          C93   1.398       .  A
C92        C2197   1.486       .  S
C93          H96   1.085       .  S
C97          C98   1.395       .  A
C97         C102   1.404       .  A
C97        C2164   1.482       .  S
C98          C99   1.391       .  A
C98         H103   1.085       .  S
C99         C100   1.406       .  A
C99        C2173   1.472       .  S
C100        C101   1.410       .  A
C100        H104   1.084       .  S
C101        C102   1.406       .  A
C101       C2149   1.488       .  S
C102        H105   1.083       .  S
C106        C107   1.391       .  A
C106        C111   1.404       .  A
C106       C2140   1.483       .  S
C107        C108   1.390       .  A
C107        H112   1.085       .  S
C108        C109   1.409       .  A
C108       C2125   1.476       .  S
C109        C110   1.421       .  A
C109        H113   1.083       .  S
C110        C111   1.416       .  A
C110       C2113   1.516       .  S
C111        H114   1.078       .  S
O115        C123   1.298       .  A
O115       Co135   2.133   1_655  S
O116        C124   1.269       .  A
O116       Co136   2.001       .  S
O117        C125   1.270       .  A
O117       Co137   1.972       .  S
O118        C126   1.265       .  A
O118       Co138   1.974       .  S
O119        C125   1.272       .  A
O119       Co136   2.004   1_655  S
O120        C126   1.266       .  A
O120       Co135   1.994       .  S
O121        C124   1.268       .  A
O121       Co138   1.972       .  S
O122        C123   1.264       .  A
O122       Co137   1.867       .  S
C123       C2497   1.475       .  S
C124       C2089   1.482       .  S
C125       C2101   1.463       .  S
C126       C2077   1.465       .  S
O127        C140   1.275       .  A
O127       Co135   1.986       .  S
O128        C141   1.261       .  A
O128       Co136   1.968   1_655  S
O129        C142   1.298       .  A
O129       Co137   2.130       .  S
O130        C143   1.273       .  A
O130       Co138   1.999       .  S
O131        C143   1.264       .  A
O131       Co136   1.962       .  S
O132        C142   1.269   1_455  A
O132       Co135   1.881       .  S
O133        C140   1.271       .  A
O133       Co138   1.994       .  S
O134        C141   1.261       .  A
O134       Co137   1.986       .  S
Co135       O139   1.997       .  S
Co136       O139   2.038       .  S
Co137       O139   1.987   1_655  S
Co138       O139   2.028       .  S
C140       C2128   1.478       .  S
C141       C2296   1.459       .  S
C142       C2257   1.484       .  S
C143       C2161   1.480       .  S
C144        C145   1.405       .  A
C144        C149   1.405       .  A
C144       C2053   1.497       .  S
C145        C146   1.405       .  A
C145        H150   1.083       .  S
C146        C147   1.412       .  A
C146       C2065   1.491       .  S
C147        C148   1.413       .  A
C147        H151   1.082       .  S
C148        C149   1.407       .  A
C148       C2041   1.509       .  S
C149        H152   1.083       .  S
C153        C154   1.418       .  A
C153        C158   1.402       .  A
C153       C2017   1.505       .  S
C154        C155   1.421       .  A
C154        H159   1.079       .  S
C155        C156   1.413       .  A
C155       C2032   1.520       .  S
C156        C157   1.401       .  A
C156        H160   1.074       .  S
C157        C158   1.392       .  A
C157       C2005   1.482       .  S
C158        H161   1.081       .  S
C162        C163   1.431       .  A
C162        C167   1.446       .  A
C162       C2116   1.551       .  S
C163        C164   1.423       .  A
C163       C1981   1.514       .  S
C164        C165   1.422       .  A
C164       C1969   1.492       .  S
C165        C166   1.432       .  A
C165       C2068   1.505       .  S
C166        C167   1.442       .  A
C166       C1993   1.535       .  S
C167       C2029   1.548       .  S
C168        C169   1.403       .  A
C168        C173   1.407       .  A
C168       C1984   1.484       .  S
C169        C170   1.404       .  A
C169        H174   1.084       .  S
C170        C171   1.397       .  A
C170       C2080   1.482       .  S
C171        C172   1.403       .  A
C171        H175   1.083       .  S
C172        C173   1.411       .  A
C172       C1957   1.502       .  S
C173        H176   1.081       .  S
O177        C185   1.261       .  A
O177       Co197   2.014       .  S
O178        C186   1.276       .  A
O178       Co198   2.029       .  S
O179        C187   1.269       .  A
O179       Co199   1.978       .  S
O180        C188   1.261   1_455  A
O180       Co200   1.854       .  S
O181        C187   1.272       .  A
O181       Co198   2.006       .  S
O182        C188   1.303       .  A
O182       Co197   2.121       .  S
O183        C186   1.269       .  A
O183       Co200   1.970       .  S
O184        C185   1.258       .  A
O184       Co199   1.980   1_655  S
C185       C2488   1.489       .  S
C186       C1921   1.477       .  S
C187       C1960   1.478       .  S
C188       C1912   1.488       .  S
O189        C202   1.260       .  A
O189       Co197   1.872       .  S
O190        C203   1.257       .  A
O190       Co198   1.958       .  S
O191        C204   1.275       .  A
O191       Co199   2.022   1_655  S
O192        C205   1.258       .  A
O192       Co200   2.007       .  S
O193        C205   1.254       .  A
O193       Co198   1.964       .  S
O194        C204   1.268       .  A
O194       Co197   1.978       .  S
O195        C202   1.295       .  A
O195       Co200   2.107   1_655  S
O196        C203   1.264       .  A
O196       Co199   2.010       .  S
Co197       O201   2.021   1_655  S
Co198       O201   2.030       .  S
Co199       O201   2.057       .  S
Co200       O201   2.014       .  S
C202       C2224   1.477       .  S
C203       C1933   1.471       .  S
C204       C2188   1.487       .  S
C205       C1948   1.490       .  S
C206        C207   1.405       .  A
C206        C211   1.407       .  A
C206       C1945   1.503       .  S
C207        C208   1.404       .  A
C207        H212   1.071       .  S
C208        C209   1.418       .  A
C208       C1897   1.518       .  S
C209        C210   1.409       .  A
C209        H213   1.080       .  S
C210        C211   1.405       .  A
C210       C1885   1.489       .  S
C211        H214   1.083       .  S
C215        C216   1.407       .  A
C215        C220   1.398       .  A
C215       C1876   1.483       .  S
C216        C217   1.408       .  A
C216        H221   1.084       .  S
C217        C218   1.403       .  A
C217       C1972   1.478       .  S
C218        C219   1.399       .  A
C218        H222   1.080       .  S
C219        C220   1.396       .  A
C219       C1936   1.478       .  S
C220        H223   1.085       .  S
C224        C225   1.413       .  A
C224        C229   1.420       .  A
C224       C1996   1.511       .  S
C225        C226   1.414       .  A
C225        H230   1.081       .  S
C226        C227   1.405       .  A
C226       C1861   1.492       .  S
C227        C228   1.392       .  A
C227        H231   1.084       .  S
C228        C229   1.398       .  A
C228       C1849   1.484       .  S
C229        H232   1.082       .  S
C233        C234   1.405       .  A
C233        C238   1.395       .  A
C233       C1840   1.482       .  S
C234        C235   1.410       .  A
C234        H239   1.084       .  S
C235        C236   1.413       .  A
C235       C2440   1.496       .  S
C236        C237   1.411       .  A
C236        H240   1.083       .  S
C237        C238   1.402       .  A
C237       C1825   1.494       .  S
C238        H241   1.084       .  S
C242        C243   1.400       .  A
C242        C247   1.419       .  A
C242       C1813   1.506       .  S
C243        C244   1.387       .  A
C243        H248   1.083       .  S
C244        C245   1.398       .  A
C244       C2092   1.475       .  S
C245        C246   1.415       .  A
C245        H249   1.082       .  S
C246        C247   1.420       .  A
C246       C1801   1.519       .  S
C247        H250   1.073       .  S
C251        C252   1.447       .  A
C251        C256   1.432       .  A
C251       C1780   1.547       .  S
C252        C253   1.444       .  A
C252       C1789   1.549       .  S
C253        C254   1.430       .  A
C253       C2329   1.508       .  S
C254        C255   1.432       .  A
C254       C2152   1.502       .  S
C255        C256   1.434       .  A
C255       C1804   1.544       .  S
C256       C1765   1.542       .  S
C257        C258   1.417       .  A
C257        C262   1.413       .  A
C257       C1777   1.510       .  S
C258        C259   1.401       .  A
C258        H263   1.082       .  S
C259        C260   1.389       .  A
C259       C1756   1.479       .  S
C260        C261   1.394       .  A
C260        H264   1.085       .  S
C261        C262   1.409       .  A
C261       C1741   1.473       .  S
C262        H265   1.082       .  S
O266        C274   1.303       .  A
O266       Co286   2.085       .  S
O267        C275   1.260       .  A
O267       Co287   1.988       .  S
O268        C276   1.263       .  A
O268       Co288   1.981       .  S
O269        C277   1.276       .  A
O269       Co289   1.910       .  S
O270        C276   1.267       .  A
O270       Co287   2.007       .  S
O271        C277   1.295       .  A
O271       Co286   2.045       .  S
O272        C275   1.267       .  A
O272       Co289   1.996       .  S
O273        C274   1.267       .  A
O273       Co288   1.891       .  S
C274       C1900   1.487   1_554  S
C275       C1708   1.503       .  S
C276       C1720   1.472       .  S
C277       C1873   1.488   1_554  S
O278        C291   1.254   1_556  A
O278       Co286   1.999   1_556  S
O279        C292   1.263       .  A
O279       Co287   1.976       .  S
O280        C293   1.248       .  A
O280       Co288   1.965       .  S
O281        C294   1.269       .  A
O281       Co289   1.994       .  S
O282        C294   1.270       .  A
O282       Co287   1.981       .  S
O283        C293   1.252   1_556  A
O283       Co286   1.996   1_556  S
O284        C291   1.247       .  A
O284       Co289   1.967       .  S
O285        C292   1.264       .  A
O285       Co288   1.992       .  S
Co286       O290   2.263       .  S
Co287       O290   2.086       .  S
Co288       O290   1.928       .  S
Co289       O290   1.958       .  S
C291       C2056   1.493   1_554  S
C292       C1729   1.484       .  S
C293       C2392   1.490   1_554  S
C294       C1753   1.488       .  S
O295        C303   1.266       .  A
O295       Co315   1.987       .  S
O296        C304   1.265       .  A
O296       Co316   1.964       .  S
O297        C305   1.296       .  A
O297       Co317   2.112       .  S
O298        C306   1.271   1_455  A
O298       Co318   2.014       .  S
O299        C305   1.265       .  A
O299       Co316   1.888       .  S
O300        C306   1.260       .  A
O300       Co315   1.958       .  S
O301        C304   1.276       .  A
O301       Co318   2.018       .  S
O302        C303   1.259       .  A
O302       Co317   1.973   1_655  S
C303       C2356   1.481       .  S
C304       C1816   1.462       .  S
C305       C1657   1.478       .  S
C306       C1696   1.472       .  S
O307        C320   1.275       .  A
O307       Co315   2.026       .  S
O308        C321   1.296       .  A
O308       Co316   2.097       .  S
O309        C322   1.277       .  A
O309       Co317   1.991   1_655  S
O310        C323   1.253       .  A
O310       Co318   1.961       .  S
O311        C323   1.262       .  A
O311       Co316   2.009       .  S
O312        C322   1.269       .  A
O312       Co315   1.986       .  S
O313        C320   1.259       .  A
O313       Co318   1.958   1_655  S
O314        C321   1.267       .  A
O314       Co317   1.893       .  S
Co315       O319   2.034   1_655  S
Co316       O319   2.015       .  S
Co317       O319   2.003       .  S
Co318       O319   2.030       .  S
C320       C1633   1.467       .  S
C321       C1669   1.486       .  S
C322       C1645   1.497       .  S
C323       C1681   1.489       .  S
C324        C325   1.394       .  A
C324        C329   1.405       .  A
C324       C1717   1.482       .  S
C325        C326   1.398       .  A
C325        H330   1.085       .  S
C326        C327   1.405       .  A
C326       C1672   1.484       .  S
C327        C328   1.410       .  A
C327        H331   1.084       .  S
C328        C329   1.412       .  A
C328       C1624   1.488       .  S
C329        H332   1.084       .  S
C333        C334   1.396       .  A
C333        C338   1.409       .  A
C333       C1609   1.479       .  S
C334        C335   1.396       .  A
C334        H339   1.085       .  S
C335        C336   1.412       .  A
C335       C1648   1.484       .  S
C336        C337   1.409       .  A
C336        H340   1.084       .  S
C337        C338   1.408       .  A
C337       C1597   1.493       .  S
C338        H341   1.083       .  S
C342        C343   1.393       .  A
C342        C347   1.414       .  A
C342       C1636   1.493       .  S
C343        C344   1.391       .  A
C343        H348   1.079       .  S
C344        C345   1.397       .  A
C344       C1585   1.463       .  S
C345        C346   1.398       .  A
C345        H349   1.083       .  S
C346        C347   1.401       .  A
C346       C1573   1.472       .  S
C347        H350   1.081       .  S
O351        C359   1.275       .  A
O351       Co371   2.013       .  S
O352        C360   1.259       .  A
O352       Co372   1.977       .  S
O353        C361   1.268       .  A
O353       Co373   1.880       .  S
O354        C362   1.267   1_554  A
O354       Co374   1.969       .  S
O355        C361   1.295       .  A
O355       Co372   2.102       .  S
O356        C362   1.272       .  A
O356       Co371   2.008       .  S
O357        C360   1.268       .  A
O357       Co374   1.995       .  S
O358        C359   1.271   1_554  A
O358       Co373   1.982       .  S
C359       C2200   1.497       .  S
C360       C1612   1.492       .  S
C361       C1588   1.475       .  S
C362       C2236   1.489       .  S
O363        C376   1.262       .  A
O363       Co371   1.961   1_554  S
O364        C377   1.264       .  A
O364       Co372   1.894       .  S
O365        C378   1.261       .  A
O365       Co373   1.984       .  S
O366        C379   1.275       .  A
O366       Co374   1.994       .  S
O367        C379   1.275       .  A
O367       Co372   1.987       .  S
O368        C378   1.261       .  A
O368       Co371   1.972   1_554  S
O369        C376   1.271       .  A
O369       Co374   2.005       .  S
O370        C377   1.296       .  A
O370       Co373   2.120       .  S
Co371       O375   2.026   1_556  S
Co372       O375   1.986       .  S
Co373       O375   2.003       .  S
Co374       O375   2.036       .  S
C376       C1564   1.480   1_554  S
C377       C1540   1.472       .  S
C378       C2536   1.462   1_554  S
C379       C1549   1.490       .  S
C380        C381   1.391       .  A
C380        C385   1.410       .  A
C380       C1501   1.472       .  S
C381        C382   1.393       .  A
C381        H386   1.085       .  S
C382        C383   1.400       .  A
C382       C1513   1.467       .  S
C383        C384   1.403       .  A
C383        H387   1.084       .  S
C384        C385   1.410       .  A
C384       C1525   1.482       .  S
C385        H388   1.083       .  S
C389        C390   1.393       .  A
C389        C394   1.413       .  A
C389       C2104   1.490       .  S
C390        C391   1.385       .  A
C390        H395   1.086       .  S
C391        C392   1.406       .  A
C391       C1693   1.473       .  S
C392        C393   1.413       .  A
C392        H396   1.083       .  S
C393        C394   1.417       .  A
C393       C1489   1.496       .  S
C394        H397   1.083       .  S
C398        C399   1.419       .  A
C398        C403   1.422       .  A
C398       C1492   1.511       .  S
C399        C400   1.416       .  A
C399       C2272   1.487       .  S
C400        C401   1.413       .  A
C400       C1528   1.490       .  S
C401        C402   1.411       .  A
C401       C1465   1.495       .  S
C402        C403   1.419       .  A
C402       C1477   1.497       .  S
C403       C1576   1.483       .  S
C404        C405   1.404       .  A
C404        C409   1.405       .  A
C404       C1480   1.484       .  S
C405        C406   1.407       .  A
C405        H410   1.083       .  S
C406        C407   1.399       .  A
C406       C1537   1.488       .  S
C407        C408   1.400       .  A
C407        H411   1.084       .  S
C408        C409   1.411       .  A
C408       C1453   1.492       .  S
C409        H412   1.083       .  S
O413        C421   1.270       .  A
O413       Co433   2.027       .  S
O414        C422   1.304       .  A
O414       Co434   2.130       .  S
O415        C423   1.253       .  A
O415       Co435   1.968   1_554  S
O416        C424   1.264       .  A
O416       Co436   1.976       .  S
O417        C423   1.258       .  A
O417       Co434   2.018       .  S
O418        C424   1.274       .  A
O418       Co433   2.025       .  S
O419        C422   1.260       .  A
O419       Co436   1.861       .  S
O420        C421   1.255       .  A
O420       Co435   1.958   1_554  S
C421       C1828   1.490   1_554  S
C422       C1441   1.480       .  S
C423       C1852   1.484   1_554  S
C424       C1429   1.481       .  S
O425        C438   1.254       .  A
O425       Co433   1.978       .  S
O426        C439   1.268   1_554  A
O426       Co434   1.971       .  S
O427        C440   1.272       .  A
O427       Co435   2.039       .  S
O428        C441   1.300       .  A
O428       Co436   2.115       .  S
O429        C441   1.261       .  A
O429       Co434   1.871       .  S
O430        C440   1.256   1_554  A
O430       Co433   1.961       .  S
O431        C438   1.261       .  A
O431       Co436   2.009       .  S
O432        C439   1.279       .  A
O432       Co435   2.040       .  S
Co433       O437   2.061       .  S
Co434       O437   2.028       .  S
Co435       O437   2.047   1_556  S
Co436       O437   2.015       .  S
C438       C1456   1.481       .  S
C439       C2044   1.502       .  S
C440       C2524   1.480       .  S
C441       C1744   1.482       .  S
C442        C443   1.406       .  A
C442        C447   1.393       .  A
C442       C1444   1.480       .  S
C443        C444   1.414       .  A
C443        H448   1.079       .  S
C444        C445   1.427       .  A
C444       C1792   1.524       .  S
C445        C446   1.408       .  A
C445        H449   1.079       .  S
C446        C447   1.393       .  A
C446       C1420   1.487       .  S
C447        H450   1.085       .  S
C451        C452   1.406       .  A
C451        C456   1.396       .  A
C451       C1405   1.475       .  S
C452        C453   1.407       .  A
C452        H457   1.084       .  S
C453        C454   1.411       .  A
C453       C1468   1.490       .  S
C454        C455   1.411       .  A
C454        H458   1.083       .  S
C455        C456   1.395       .  A
C455       C1432   1.484       .  S
C456        H459   1.085       .  S
C460        C461   1.406       .  A
C460        C465   1.402       .  A
C460       C1381   1.486       .  S
C461        C462   1.414       .  A
C461        H466   1.081       .  S
C462        C463   1.407       .  A
C462       C1552   1.504       .  S
C463        C464   1.399       .  A
C463        H467   1.083       .  S
C464        C465   1.402       .  A
C464       C1393   1.475       .  S
C465        H468   1.084       .  S
C469        C470   1.424       .  A
C469        C474   1.421       .  A
C469       C1600   1.504       .  S
C470        C471   1.421       .  A
C470       C2365   1.491       .  S
C471        C472   1.414       .  A
C471       C1369   1.502       .  S
C472        C473   1.411       .  A
C472       C1357   1.490       .  S
C473        C474   1.416       .  A
C473       C1345   1.496       .  S
C474       C1384   1.494       .  S
C475        C476   1.408       .  A
C475        C480   1.399       .  A
C475       C1333   1.481       .  S
C476        C477   1.407       .  A
C476        H481   1.084       .  S
C477        C478   1.401       .  A
C477       C1360   1.480       .  S
C478        C479   1.401       .  A
C478        H482   1.085       .  S
C479        C480   1.395       .  A
C479       C1321   1.472       .  S
C480        H483   1.085       .  S
O484        C492   1.301       .  A
O484       Co504   2.084       .  S
O485        C493   1.298       .  A
O485       Co505   2.086       .  S
O486        C494   1.306       .  A
O486       Co506   2.087       .  S
O487        C495   1.312       .  A
O487       Co507   2.113   1_565  S
O488        C494   1.274       .  A
O488       Co505   1.863       .  S
O489        C495   1.266       .  A
O489       Co504   1.837       .  S
O490        C493   1.273       .  A
O490       Co507   1.904       .  S
O491        C492   1.272   1_545  A
O491       Co506   1.898       .  S
C492       C1417   1.489       .  S
C493       C1285   1.481       .  S
C494       C1300   1.477       .  S
C495       C1408   1.491       .  S
O496        C509   1.264       .  A
O496       Co504   2.008       .  S
O497        C510   1.262       .  A
O497       Co505   2.006       .  S
O498        C511   1.256       .  A
O498       Co506   1.989   1_565  S
O499        C512   1.257       .  A
O499       Co507   1.992       .  S
O500        C512   1.253       .  A
O500       Co505   1.960       .  S
O501        C511   1.248       .  A
O501       Co504   1.958       .  S
O502        C509   1.249       .  A
O502       Co507   1.932   1_565  S
O503        C510   1.249       .  A
O503       Co506   1.943       .  S
Co504       O508   1.983   1_565  S
Co505       O508   1.994       .  S
Co506       O508   2.018       .  S
Co507       O508   2.030       .  S
C509       C1516   1.473       .  S
C510       C1309   1.480       .  S
C511       C2320   1.459       .  S
C512       C1336   1.489       .  S
O513        C521   1.267       .  A
O513       Co533   1.999       .  S
O514        C522   1.273       .  A
O514       Co534   1.917       .  S
O515        C523   1.265       .  A
O515       Co535   1.982       .  S
O516        C524   1.298   1_554  A
O516       Co536   2.065       .  S
O517        C523   1.267       .  A
O517       Co534   1.983       .  S
O518        C524   1.271       .  A
O518       Co533   1.889   1_556  S
O519        C522   1.294       .  A
O519       Co536   2.059       .  S
O520        C521   1.264       .  A
O520       Co535   1.982       .  S
C521       C2380   1.489   1_554  S
C522       C1396   1.490       .  S
C523       C1237   1.488       .  S
C524       C1276   1.480       .  S
O525        C538   1.249   1_556  A
O525       Co533   1.980   1_556  S
O526        C539   1.272       .  A
O526       Co534   2.004       .  S
O527        C540   1.269   1_554  A
O527       Co535   1.979       .  S
O528        C541   1.250       .  A
O528       Co536   1.988       .  S
O529        C541   1.239       .  A
O529       Co534   1.950       .  S
O530        C540   1.266       .  A
O530       Co533   1.984   1_556  S
O531        C538   1.245       .  A
O531       Co536   1.968       .  S
O532        C539   1.268       .  A
O532       Co535   1.970       .  S
Co533       O537   1.954       .  S
Co534       O537   1.962       .  S
Co535       O537   2.076       .  S
Co536       O537   2.240       .  S
C538       C1213   1.489   1_554  S
C539       C1249   1.466       .  S
C540       C1225   1.484       .  S
C541       C1264   1.477       .  S
C542        C543   1.386       .  A
C542        C547   1.405       .  A
C542       C1252   1.477       .  S
C543        C544   1.387       .  A
C543        H548   1.086       .  S
C544        C545   1.406       .  A
C544       C1297   1.480       .  S
C545        C546   1.423       .  A
C545        H549   1.077       .  S
C546        C547   1.423       .  A
C546       C1201   1.525       .  S
C547        H550   1.077       .  S
C551        C552   1.397       .  A
C551        C556   1.405       .  A
C551       C1192   1.473       .  S
C552        C553   1.398       .  A
C552        H557   1.085       .  S
C553        C554   1.404       .  A
C553       C1228   1.478       .  S
C554        C555   1.400       .  A
C554        H558   1.084       .  S
C555        C556   1.404       .  A
C555       C1177   1.477       .  S
C556        H559   1.084       .  S
C560        C561   1.391       .  A
C560        C565   1.409       .  A
C560       C1216   1.492       .  S
C561        C562   1.389       .  A
C561        H566   1.085       .  S
C562        C563   1.403       .  A
C562       C1168   1.478       .  S
C563        C564   1.420       .  A
C563        H567   1.078       .  S
C564        C565   1.426       .  A
C564       C1153   1.527       .  S
C565        H568   1.074       .  S
O569        C577   1.261       .  A
O569       Co589   1.859   1_565  S
O570        C578   1.264       .  A
O570       Co590   1.966       .  S
O571        C579   1.257       .  A
O571       Co591   1.992       .  S
O572        C580   1.273       .  A
O572       Co592   2.019       .  S
O573        C579   1.261       .  A
O573       Co590   1.991   1_565  S
O574        C580   1.269       .  A
O574       Co589   1.973       .  S
O575        C578   1.271       .  A
O575       Co592   2.015       .  S
O576        C577   1.298       .  A
O576       Co591   2.116       .  S
C577       C2464   1.469       .  S
C578       C1144   1.481       .  S
C579       C2020   1.492       .  S
C580       C1129   1.477       .  S
O581        C594   1.259       .  A
O581       Co589   2.001       .  S
O582        C595   1.280       .  A
O582       Co590   2.028   1_565  S
O583        C596   1.259       .  A
O583       Co591   1.889       .  S
O584        C597   1.259       .  A
O584       Co592   1.970       .  S
O585        C597   1.267       .  A
O585       Co590   2.023       .  S
O586        C596   1.293       .  A
O586       Co589   2.101   1_565  S
O587        C594   1.255       .  A
O587       Co592   1.965       .  S
O588        C595   1.267       .  A
O588       Co591   1.962       .  S
Co589       O593   2.026       .  S
Co590       O593   2.050       .  S
Co591       O593   2.004   1_565  S
Co592       O593   2.036       .  S
C594       C1165   1.478       .  S
C595       C1864   1.485       .  S
C596       C1837   1.483       .  S
C597       C1189   1.475       .  S
C598        C599   1.386       .  A
C598        C603   1.401       .  A
C598       C1561   1.479       .  S
C599        C600   1.389       .  A
C599        H604   1.085       .  S
C600        C601   1.405       .  A
C600       C1273   1.473       .  S
C601        C602   1.418       .  A
C601        H605   1.078       .  S
C602        C603   1.421       .  A
C602       C1120   1.517       .  S
C603        H606   1.078       .  S
C607        C608   1.401       .  A
C607        C612   1.394       .  A
C607       C1909   1.470       .  S
C608        C609   1.402       .  A
C608        H613   1.084       .  S
C609        C610   1.407       .  A
C609       C1108   1.479       .  S
C610        C611   1.411       .  A
C610        H614   1.083       .  S
C611        C612   1.401       .  A
C611       C1096   1.495       .  S
C612        H615   1.083       .  S
C616        C617   1.426       .  A
C616        C621   1.409       .  A
C616       C2212   1.501       .  S
C617        C618   1.434       .  A
C617       C1117   1.527       .  S
C618        C619   1.441       .  A
C618       C1156   1.549       .  S
C619        C620   1.425       .  A
C619       C1081   1.502       .  S
C620        C621   1.411       .  A
C620       C1069   1.498       .  S
C621       C1105   1.493       .  S
C622        C623   1.406       .  A
C622        C627   1.402       .  A
C622       C1084   1.487       .  S
C623        C624   1.419       .  A
C623        H628   1.080       .  S
C624        C625   1.405       .  A
C624       C1057   1.512       .  S
C625        C626   1.396       .  A
C625        H629   1.079       .  S
C626        C627   1.399       .  A
C626       C1132   1.471       .  S
C627        H630   1.084       .  S
O631        C639   1.271   1_545  A
O631       Co651   2.021       .  S
O632        C640   1.263       .  A
O632       Co652   2.002       .  S
O633        C641   1.275       .  A
O633       Co653   1.968       .  S
O634        C642   1.297       .  A
O634       Co654   2.097       .  S
O635        C641   1.272       .  A
O635       Co652   1.994   1_565  S
O636        C642   1.267       .  A
O636       Co651   1.899       .  S
O637        C640   1.250       .  A
O637       Co654   1.959       .  S
O638        C639   1.256       .  A
O638       Co653   1.955       .  S
C639       C2248   1.489       .  S
C640       C1045   1.490       .  S
C641       C2284   1.475       .  S
C642       C1033   1.481       .  S
O643        C656   1.301       .  A
O643       Co651   2.095       .  S
O644        C657   1.257   1_545  A
O644       Co652   2.013       .  S
O645        C658   1.264       .  A
O645       Co653   1.979       .  S
O646        C659   1.314       .  A
O646       Co654   2.114       .  S
O647        C659   1.271       .  A
O647       Co652   1.839       .  S
O648        C658   1.263       .  A
O648       Co651   1.976   1_565  S
O649        C656   1.266       .  A
O649       Co654   1.886       .  S
O650        C657   1.245       .  A
O650       Co653   1.942       .  S
Co651       O655   2.012       .  S
Co652       O655   1.903       .  S
Co653       O655   2.046   1_565  S
Co654       O655   2.080       .  S
C656       C1060   1.476       .  S
C657       C1504   1.470       .  S
C658       C2452   1.475       .  S
C659       C1324   1.484       .  S
C660        C661   1.411       .  A
C660        C665   1.400       .  A
C660       C1048   1.487       .  S
C661        C662   1.411       .  A
C661        H666   1.083       .  S
C662        C663   1.406       .  A
C662       C1372   1.491       .  S
C663        C664   1.409       .  A
C663        H667   1.083       .  S
C664        C665   1.401       .  A
C664       C1021   1.498       .  S
C665        H668   1.084       .  S
C669        C670   1.401       .  A
C669        C674   1.399       .  A
C669       C1009   1.478       .  S
C670        C671   1.405       .  A
C670        H675   1.084       .  S
C671        C672   1.403       .  A
C671       C1072   1.483       .  S
C672        C673   1.412       .  A
C672        H676   1.082       .  S
C673        C674   1.404       .  A
C673       C1036   1.503       .  S
C674        H677   1.079       .  S
C678        C679   1.394       .  A
C678        C683   1.411       .  A
C678        C997   1.490       .  S
C679        C680   1.390       .  A
C679        H684   1.085       .  S
C680        C681   1.408       .  A
C680       C1141   1.480       .  S
C681        C682   1.414       .  A
C681        H685   1.083       .  S
C682        C683   1.412       .  A
C682        C985   1.491       .  S
C683        H686   1.083       .  S
C687        C688   1.420       .  A
C687        C692   1.417       .  A
C687       C2404   1.499       .  S
C688        C689   1.422       .  A
C688       C1888   1.496       .  S
C689        C690   1.423       .  A
C689        C976   1.502       .  S
C690        C691   1.417       .  A
C690        C961   1.496       .  S
C691        C692   1.416       .  A
C691        C988   1.502       .  S
C692       C1180   1.488       .  S
O693        C701   1.280       .  A
O693       Co713   1.995       .  S
O694        C702   1.263       .  A
O694       Co714   1.977       .  S
O695        C703   1.268       .  A
O695       Co715   1.995       .  S
O696        C704   1.299       .  A
O696       Co716   2.126   1_565  S
O697        C703   1.266       .  A
O697       Co714   1.964       .  S
O698        C704   1.265       .  A
O698       Co713   1.887       .  S
O699        C702   1.262       .  A
O699       Co716   1.987       .  S
O700        C701   1.274       .  A
O700       Co715   2.006   1_565  S
C701       C2305   1.482       .  S
C702       C1000   1.463       .  S
C703        C949   1.488       .  S
C704       C2008   1.492       .  S
O705        C718   1.301       .  A
O705       Co713   2.124       .  S
O706        C719   1.269       .  A
O706       Co714   1.995       .  S
O707        C720   1.267       .  A
O707       Co715   1.988   1_565  S
O708        C721   1.272       .  A
O708       Co716   1.986       .  S
O709        C721   1.271       .  A
O709       Co714   1.995       .  S
O710        C720   1.257       .  A
O710       Co713   1.966       .  S
O711        C718   1.266   1_545  A
O711       Co716   1.881       .  S
O712        C719   1.272       .  A
O712       Co715   1.982       .  S
Co713       O717   1.991   1_565  S
Co714       O717   2.033       .  S
Co715       O717   2.043       .  S
Co716       O717   2.005       .  S
C718       C2137   1.486       .  S
C719        C925   1.490       .  S
C720       C2176   1.486       .  S
C721        C937   1.486       .  S
O722        C730   1.263       .  A
O722       Co742   1.975       .  S
O723        C731   1.263       .  A
O723       Co743   1.977       .  S
O724        C732   1.270       .  A
O724       Co744   2.020       .  S
O725        C733   1.271       .  A
O725       Co745   2.022   1_655  S
O726        C732   1.265       .  A
O726       Co743   1.964       .  S
O727        C733   1.264       .  A
O727       Co742   1.961       .  S
O728        C731   1.266       .  A
O728       Co745   2.007       .  S
O729        C730   1.266       .  A
O729       Co744   2.007   1_655  S
C730       C1024   1.480       .  S
C731        C901   1.488       .  S
C732        C913   1.474       .  S
C733       C1012   1.474       .  S
O734        C747   1.266       .  A
O734       Co742   2.020       .  S
O735        C748   1.267       .  A
O735       Co743   2.027       .  S
O736        C749   1.262       .  A
O736       Co744   1.958   1_655  S
O737        C750   1.263       .  A
O737       Co745   1.961       .  S
O738        C750   1.272       .  A
O738       Co743   2.032       .  S
O739        C749   1.271       .  A
O739       Co742   2.027       .  S
O740        C747   1.260       .  A
O740       Co745   1.958   1_655  S
O741        C748   1.259       .  A
O741       Co744   1.957       .  S
Co742       O746   2.119   1_655  S
Co743       O746   2.119       .  S
Co744       O746   2.100       .  S
Co745       O746   2.097       .  S
C747       C1093   1.485       .  S
C748        C892   1.484       .  S
C749       C2344   1.474       .  S
C750        C877   1.490       .  S
C751        C752   1.398       .  A
C751        C756   1.409       .  A
C751        C916   1.484       .  S
C752        C753   1.394       .  A
C752        H757   1.084       .  S
C753        C754   1.405       .  A
C753        C928   1.481       .  S
C754        C755   1.405       .  A
C754        H758   1.084       .  S
C755        C756   1.412       .  A
C755        C865   1.488       .  S
C756        H759   1.084       .  S
C760        C761   1.404       .  A
C760        C765   1.412       .  A
C760        C880   1.500       .  S
C761        C762   1.398       .  A
C761        H766   1.083       .  S
C762        C763   1.405       .  A
C762       C1924   1.479       .  S
C763        C764   1.407       .  A
C763        H767   1.084       .  S
C764        C765   1.408       .  A
C764        C973   1.488       .  S
C765        H768   1.083       .  S
C769        C770   1.407       .  A
C769        C774   1.410       .  A
C769        C964   1.496       .  S
C770        C771   1.403       .  A
C770        H775   1.084       .  S
C771        C772   1.394       .  A
C771        C940   1.476       .  S
C772        C773   1.405       .  A
C772        H776   1.080       .  S
C773        C774   1.416       .  A
C773        C904   1.506       .  S
C774        H777   1.081       .  S
C778        C779   1.412       .  A
C778        C783   1.405       .  A
C778       C1348   1.486       .  S
C779        C780   1.413       .  A
C779        H784   1.083       .  S
C780        C781   1.397       .  A
C780       C1288   1.489       .  S
C781        C782   1.392       .  A
C781        H785   1.085       .  S
C782        C783   1.399       .  A
C782       C1261   1.467       .  S
C783        H786   1.084       .  S
C787        C788   1.429       .  A
C787        C792   1.422       .  A
C787       C1768   1.532       .  S
C788        C789   1.417       .  A
C788        H793   1.079       .  S
C789        C790   1.391       .  A
C789       C1705   1.489       .  S
C790        C791   1.386       .  A
C790        H794   1.086       .  S
C791        C792   1.401       .  A
C791       C1684   1.474       .  S
C792        H795   1.077       .  S
C796        C797   1.417       .  A
C796        C801   1.417       .  A
C796        C856   1.514       .  S
C797        C798   1.398       .  A
C797        H802   1.081       .  S
C798        C799   1.386       .  A
C798       C1732   1.470       .  S
C799        C800   1.391       .  A
C799        H803   1.086       .  S
C800        C801   1.413       .  A
C800       C1240   1.476       .  S
C801        H804   1.081       .  S
C805        C806   1.404       .  A
C805        C810   1.404       .  A
C805        C841   1.483       .  S
C806        C807   1.404       .  A
C806        H811   1.084       .  S
C807        C808   1.396       .  A
C807       C1312   1.473       .  S
C808        C809   1.397       .  A
C808        H812   1.085       .  S
C809        C810   1.405       .  A
C809        C952   1.477       .  S
C810        H813   1.084       .  S
C814        C815   1.403       .  A
C814        C819   1.407       .  A
C814        C832   1.478       .  S
C815        C816   1.404       .  A
C815        H820   1.082       .  S
C816        C817   1.402       .  A
C816       C1660   1.490       .  S
C817        C818   1.399       .  A
C817        H821   1.084       .  S
C818        C819   1.406       .  A
C818        C889   1.487       .  S
C819        H822   1.084       .  S
C823        C824   1.412       .  A
C823        C828   1.414       .  A
C823        C868   1.508       .  S
C824        C825   1.426       .  A
C824        C829   1.493       .  S
C825        C826   1.441       .  A
C825       C1621   1.504       .  S
C826        C827   1.443       .  A
C826        C853   1.540       .  S
C827        C828   1.435       .  A
C827       C1204   1.548       .  S
C828        C844   1.498       .  S
C829        C830   1.404       .  A
C829        C834   1.413       .  A
C830        C831   1.404       .  A
C830        H835   1.084       .  S
C831        C832   1.413       .  A
C831        C838   1.443       .  S
C832        C833   1.399       .  A
C833        C834   1.395       .  A
C833        H836   1.085       .  S
C834        C837   1.444       .  S
C837        N839   1.157       .  T
C838        N840   1.157       .  T
C841        C842   1.401       .  A
C841        C846   1.413       .  A
C842        C843   1.400       .  A
C842        H847   1.085       .  S
C843        C844   1.413       .  A
C843        C850   1.443       .  S
C844        C845   1.407       .  A
C845        C846   1.399       .  A
C845        H848   1.084       .  S
C846        C849   1.444       .  S
C849        N851   1.157       .  T
C850        N852   1.157       .  T
C853        C854   1.417       .  A
C853        C858   1.412       .  A
C854        C855   1.414       .  A
C854        H859   1.081       .  S
C855        C856   1.422       .  A
C855        C862   1.442       .  S
C856        C857   1.408       .  A
C857        C858   1.394       .  A
C857        H860   1.081       .  S
C858        C861   1.438       .  S
C861        N863   1.157       .  T
C862        N864   1.157       .  T
C865        C866   1.405       .  A
C865        C870   1.408       .  A
C866        C867   1.405       .  A
C866        H871   1.085       .  S
C867        C868   1.416       .  A
C867        C874   1.442       .  S
C868        C869   1.408       .  A
C869        C870   1.402       .  A
C869        H872   1.085       .  S
C870        C873   1.443       .  S
C873        N875   1.157       .  T
C874        N876   1.157       .  T
C877        C878   1.404       .  A
C877        C882   1.416       .  A
C878        C879   1.398       .  A
C878        H883   1.085       .  S
C879        C880   1.420       .  A
C879        C886   1.445       .  S
C880        C881   1.407       .  A
C881        C882   1.404       .  A
C881        H884   1.084       .  S
C882        C885   1.442       .  S
C885        N887   1.157       .  T
C886        N888   1.157       .  T
C889        C890   1.403       .  A
C889        C894   1.415       .  A
C890        C891   1.405       .  A
C890        H895   1.085       .  S
C891        C892   1.415       .  A
C891        C898   1.441       .  S
C892        C893   1.404       .  A
C893        C894   1.395       .  A
C893        H896   1.085       .  S
C894        C897   1.445       .  S
C897        N899   1.157       .  T
C898        N900   1.156       .  T
C901        C902   1.401       .  A
C901        C906   1.416       .  A
C902        C903   1.404       .  A
C902        H907   1.085       .  S
C903        C904   1.423       .  A
C903        C910   1.444       .  S
C904        C905   1.406       .  A
C905        C906   1.396       .  A
C905        H908   1.081       .  S
C906        C909   1.443       .  S
C909        N911   1.157       .  T
C910        N912   1.157       .  T
C913        C914   1.400       .  A
C913        C918   1.413       .  A
C914        C915   1.393       .  A
C914        H919   1.086       .  S
C915        C916   1.415       .  A
C915        C922   1.446       .  S
C916        C917   1.405       .  A
C917        C918   1.407       .  A
C917        H920   1.084       .  S
C918        C921   1.443       .  S
C921        N923   1.157       .  T
C922        N924   1.157       .  T
C925        C926   1.407       .  A
C925        C930   1.425       .  A
C926        C927   1.403       .  A
C926        H931   1.084       .  S
C927        C928   1.413       .  A
C927        C934   1.444       .  S
C928        C929   1.397       .  A
C929        C930   1.393       .  A
C929        H932   1.086       .  S
C930        C933   1.446       .  S
C933        N935   1.158       .  T
C934        N936   1.157       .  T
C937        C938   1.410       .  A
C937        C942   1.414       .  A
C938        C939   1.396       .  A
C938        H943   1.085       .  S
C939        C940   1.404       .  A
C939        C946   1.443       .  S
C940        C941   1.405       .  A
C941        C942   1.404       .  A
C941        H944   1.085       .  S
C942        C945   1.443       .  S
C945        N947   1.157       .  T
C946        N948   1.157       .  T
C949        C950   1.407       .  A
C949        C954   1.424       .  A
C950        C951   1.401       .  A
C950        H955   1.084       .  S
C951        C952   1.410       .  A
C951        C958   1.443       .  S
C952        C953   1.397       .  A
C953        C954   1.391       .  A
C953        H956   1.084       .  S
C954        C957   1.447       .  S
C957        N959   1.158       .  T
C958        N960   1.157       .  T
C961        C962   1.402       .  A
C961        C966   1.413       .  A
C962        C963   1.404       .  A
C962        H967   1.083       .  S
C963        C964   1.417       .  A
C963        C970   1.442       .  S
C964        C965   1.405       .  A
C965        C966   1.403       .  A
C965        H968   1.085       .  S
C966        C969   1.444       .  S
C969        N971   1.157       .  T
C970        N972   1.157       .  T
C973        C974   1.401       .  A
C973        C978   1.411       .  A
C974        C975   1.401       .  A
C974        H979   1.085       .  S
C975        C976   1.414       .  A
C975        C982   1.442       .  S
C976        C977   1.407       .  A
C977        C978   1.407       .  A
C977        H980   1.082       .  S
C978        C981   1.442       .  S
C981        N983   1.157       .  T
C982        N984   1.156       .  T
C985        C986   1.401       .  A
C985        C990   1.414       .  A
C986        C987   1.402       .  A
C986        H991   1.085       .  S
C987        C988   1.413       .  A
C987        C994   1.442       .  S
C988        C989   1.406       .  A
C989        C990   1.411       .  A
C989        H992   1.084       .  S
C990        C993   1.442       .  S
C993        N995   1.157       .  T
C994        N996   1.157       .  T
C997        C998   1.415       .  A
C997       C1002   1.410       .  A
C998        C999   1.396       .  A
C998       H1003   1.085       .  S
C999       C1000   1.399       .  A
C999       C1006   1.444       .  S
C1000      C1001   1.406       .  A
C1001      C1002   1.401       .  A
C1001      H1004   1.084       .  S
C1002      C1005   1.443       .  S
C1005      N1007   1.157       .  T
C1006      N1008   1.157       .  T
C1009      C1010   1.403       .  A
C1009      C1014   1.411       .  A
C1010      C1011   1.407       .  A
C1010      H1015   1.084       .  S
C1011      C1012   1.413       .  A
C1011      C1018   1.443       .  S
C1012      C1013   1.402       .  A
C1013      C1014   1.393       .  A
C1013      H1016   1.085       .  S
C1014      C1017   1.445       .  S
C1017      N1019   1.157       .  T
C1018      N1020   1.157   1_655  T
C1021      C1022   1.415       .  A
C1021      C1026   1.415       .  A
C1022      C1023   1.405       .  A
C1022      H1027   1.084       .  S
C1023      C1024   1.406       .  A
C1023      C1030   1.443       .  S
C1024      C1025   1.405       .  A
C1025      C1026   1.394       .  A
C1025      H1028   1.083       .  S
C1026      C1029   1.443       .  S
C1029      N1031   1.157       .  T
C1030      N1032   1.157   1_655  T
C1033      C1034   1.399       .  A
C1033      C1038   1.412       .  A
C1034      C1035   1.394       .  A
C1034      H1039   1.086       .  S
C1035      C1036   1.424       .  A
C1035      C1042   1.443       .  S
C1036      C1037   1.412       .  A
C1037      C1038   1.402       .  A
C1037      H1040   1.083       .  S
C1038      C1041   1.444       .  S
C1041      N1043   1.157       .  T
C1042      N1044   1.157       .  T
C1045      C1046   1.409       .  A
C1045      C1050   1.418       .  A
C1046      C1047   1.411       .  A
C1046      H1051   1.084       .  S
C1047      C1048   1.411       .  A
C1047      C1054   1.442       .  S
C1048      C1049   1.400       .  A
C1049      C1050   1.396       .  A
C1049      H1052   1.086       .  S
C1050      C1053   1.442       .  S
C1053      N1055   1.156       .  T
C1054      N1056   1.157       .  T
C1057      C1058   1.408       .  A
C1057      C1062   1.430       .  A
C1058      C1059   1.393       .  A
C1058      H1063   1.080       .  S
C1059      C1060   1.410       .  A
C1059      C1066   1.443       .  S
C1060      C1061   1.396       .  A
C1061      C1062   1.406       .  A
C1061      H1064   1.085       .  S
C1062      C1065   1.444       .  S
C1065      N1067   1.158       .  T
C1066      N1068   1.157       .  T
C1069      C1070   1.406       .  A
C1069      C1074   1.413       .  A
C1070      C1071   1.395       .  A
C1070      H1075   1.085       .  S
C1071      C1072   1.408       .  A
C1071      C1078   1.444       .  S
C1072      C1073   1.406       .  A
C1073      C1074   1.407       .  A
C1073      H1076   1.084       .  S
C1074      C1077   1.442       .  S
C1077      N1079   1.157       .  T
C1078      N1080   1.157       .  T
C1081      C1082   1.408       .  A
C1081      C1086   1.417       .  A
C1082      C1083   1.404       .  A
C1082      H1087   1.085       .  S
C1083      C1084   1.409       .  A
C1083      C1090   1.443       .  S
C1084      C1085   1.404       .  A
C1085      C1086   1.401       .  A
C1085      H1088   1.085       .  S
C1086      C1089   1.444       .  S
C1089      N1091   1.157       .  T
C1090      N1092   1.157       .  T
C1093      C1094   1.402       .  A
C1093      C1098   1.417       .  A
C1094      C1095   1.393       .  A
C1094      H1099   1.085       .  S
C1095      C1096   1.420       .  A
C1095      C1102   1.446       .  S
C1096      C1097   1.405       .  A
C1097      C1098   1.403       .  A
C1097      H1100   1.084       .  S
C1098      C1101   1.443       .  S
C1101      N1103   1.157       .  T
C1102      N1104   1.157       .  T
C1105      C1106   1.404       .  A
C1105      C1110   1.411       .  A
C1106      C1107   1.404       .  A
C1106      H1111   1.084       .  S
C1107      C1108   1.412       .  A
C1107      C1114   1.442       .  S
C1108      C1109   1.400       .  A
C1109      C1110   1.397       .  A
C1109      H1112   1.085       .  S
C1110      C1113   1.443       .  S
C1113      N1115   1.157       .  T
C1114      N1116   1.157       .  T
C1117      C1118   1.410       .  A
C1117      C1122   1.405       .  A
C1118      C1119   1.411       .  A
C1118      H1123   1.084       .  S
C1119      C1120   1.427       .  A
C1119      C1126   1.442       .  S
C1120      C1121   1.413       .  A
C1121      C1122   1.392       .  A
C1121      H1124   1.077       .  S
C1122      C1125   1.440       .  S
C1125      N1127   1.158       .  T
C1126      N1128   1.157       .  T
C1129      C1130   1.405       .  A
C1129      C1134   1.419       .  A
C1130      C1131   1.405       .  A
C1130      H1135   1.085       .  S
C1131      C1132   1.408       .  A
C1131      C1138   1.443       .  S
C1132      C1133   1.392       .  A
C1133      C1134   1.393       .  A
C1133      H1136   1.086       .  S
C1134      C1137   1.440       .  S
C1137      N1139   1.157       .  T
C1138      N1140   1.157       .  T
C1141      C1142   1.402       .  A
C1141      C1146   1.408       .  A
C1142      C1143   1.392       .  A
C1142      H1147   1.086       .  S
C1143      C1144   1.415       .  A
C1143      C1150   1.446       .  S
C1144      C1145   1.409       .  A
C1145      C1146   1.409       .  A
C1145      H1148   1.084       .  S
C1146      C1149   1.442       .  S
C1149      N1151   1.157       .  T
C1150      N1152   1.158       .  T
C1153      C1154   1.414       .  A
C1153      C1158   1.423       .  A
C1154      C1155   1.405       .  A
C1154      H1159   1.077       .  S
C1155      C1156   1.424       .  A
C1155      C1162   1.444       .  S
C1156      C1157   1.409       .  A
C1157      C1158   1.403       .  A
C1157      H1160   1.071       .  S
C1158      C1161   1.443       .  S
C1161      N1163   1.157       .  T
C1162      N1164   1.158       .  T
C1165      C1166   1.407       .  A
C1165      C1170   1.416       .  A
C1166      C1167   1.404       .  A
C1166      H1171   1.084       .  S
C1167      C1168   1.408       .  A
C1167      C1174   1.442       .  S
C1168      C1169   1.401       .  A
C1169      C1170   1.392       .  A
C1169      H1172   1.086       .  S
C1170      C1173   1.444       .  S
C1173      N1175   1.157       .  T
C1174      N1176   1.157       .  T
C1177      C1178   1.404       .  A
C1177      C1182   1.406       .  A
C1178      C1179   1.403       .  A
C1178      H1183   1.085       .  S
C1179      C1180   1.411       .  A
C1179      C1186   1.441       .  S
C1180      C1181   1.404       .  A
C1181      C1182   1.399       .  A
C1181      H1184   1.085       .  S
C1182      C1185   1.443       .  S
C1185      N1187   1.157       .  T
C1186      N1188   1.157       .  T
C1189      C1190   1.404       .  A
C1189      C1194   1.415       .  A
C1190      C1191   1.407       .  A
C1190      H1195   1.084       .  S
C1191      C1192   1.411       .  A
C1191      C1198   1.442       .  S
C1192      C1193   1.395       .  A
C1193      C1194   1.391       .  A
C1193      H1196   1.086       .  S
C1194      C1197   1.441       .  S
C1197      N1199   1.157       .  T
C1198      N1200   1.157       .  T
C1201      C1202   1.416       .  A
C1201      C1206   1.421       .  A
C1202      C1203   1.407       .  A
C1202      H1207   1.077       .  S
C1203      C1204   1.418       .  A
C1203      C1210   1.444       .  S
C1204      C1205   1.410       .  A
C1205      C1206   1.403       .  A
C1205      H1208   1.073       .  S
C1206      C1209   1.445       .  S
C1209      N1211   1.158       .  T
C1210      N1212   1.157       .  T
C1213      C1214   1.413       .  A
C1213      C1218   1.412       .  A
C1214      C1215   1.403       .  A
C1214      H1219   1.084   1_556  S
C1215      C1216   1.409       .  A
C1215      C1222   1.443       .  S
C1216      C1217   1.408       .  A
C1217      C1218   1.395       .  A
C1217      H1220   1.085       .  S
C1218      C1221   1.443       .  S
C1221      N1223   1.157       .  T
C1222      N1224   1.157       .  T
C1225      C1226   1.406       .  A
C1225      C1230   1.422       .  A
C1226      C1227   1.400       .  A
C1226      H1231   1.084       .  S
C1227      C1228   1.410       .  A
C1227      C1234   1.443       .  S
C1228      C1229   1.399       .  A
C1229      C1230   1.393       .  A
C1229      H1232   1.085       .  S
C1230      C1233   1.447       .  S
C1233      N1235   1.158       .  T
C1234      N1236   1.157       .  T
C1237      C1238   1.412       .  A
C1237      C1242   1.413       .  A
C1238      C1239   1.392       .  A
C1238      H1243   1.085       .  S
C1239      C1240   1.405       .  A
C1239      C1246   1.446       .  S
C1240      C1241   1.407       .  A
C1241      C1242   1.405       .  A
C1241      H1244   1.085       .  S
C1242      C1245   1.442       .  S
C1245      N1247   1.157       .  T
C1246      N1248   1.157       .  T
C1249      C1250   1.395       .  A
C1249      C1254   1.414       .  A
C1250      C1251   1.393       .  A
C1250      H1255   1.082       .  S
C1251      C1252   1.417       .  A
C1251      C1258   1.446       .  S
C1252      C1253   1.400       .  A
C1253      C1254   1.401       .  A
C1253      H1256   1.084       .  S
C1254      C1257   1.444       .  S
C1257      N1259   1.157       .  T
C1258      N1260   1.157       .  T
C1261      C1262   1.393       .  A
C1261      C1266   1.407       .  A
C1262      C1263   1.389       .  A
C1262      H1267   1.086       .  S
C1263      C1264   1.420       .  A
C1263      C1270   1.444       .  S
C1264      C1265   1.407       .  A
C1265      C1266   1.404       .  A
C1265      H1268   1.084       .  S
C1266      C1269   1.442       .  S
C1269      N1271   1.157       .  T
C1270      N1272   1.157       .  T
C1273      C1274   1.401       .  A
C1273      C1278   1.407       .  A
C1274      C1275   1.393       .  A
C1274      H1279   1.086       .  S
C1275      C1276   1.412       .  A
C1275      C1282   1.438   1_556  S
C1276      C1277   1.408       .  A
C1277      C1278   1.400       .  A
C1277      H1280   1.085       .  S
C1278      C1281   1.443       .  S
C1281      N1283   1.157       .  T
C1282      N1284   1.155       .  T
C1285      C1286   1.401       .  A
C1285      C1290   1.407       .  A
C1286      C1287   1.396       .  A
C1286      H1291   1.072       .  S
C1287      C1288   1.408       .  A
C1287      C1294   1.441       .  S
C1288      C1289   1.410       .  A
C1289      C1290   1.403       .  A
C1289      H1292   1.085       .  S
C1290      C1293   1.440       .  S
C1293      N1295   1.157       .  T
C1294      N1296   1.156       .  T
C1297      C1298   1.410       .  A
C1297      C1302   1.408       .  A
C1298      C1299   1.403       .  A
C1298      H1303   1.085       .  S
C1299      C1300   1.408       .  A
C1299      C1306   1.443       .  S
C1300      C1301   1.408       .  A
C1301      C1302   1.393       .  A
C1301      H1304   1.085       .  S
C1302      C1305   1.445       .  S
C1305      N1307   1.157       .  T
C1306      N1308   1.157       .  T
C1309      C1310   1.405       .  A
C1309      C1314   1.421       .  A
C1310      C1311   1.403       .  A
C1310      H1315   1.084       .  S
C1311      C1312   1.411       .  A
C1311      C1318   1.443       .  S
C1312      C1313   1.396       .  A
C1313      C1314   1.390       .  A
C1313      H1316   1.086       .  S
C1314      C1317   1.447       .  S
C1317      N1319   1.157       .  T
C1318      N1320   1.157       .  T
C1321      C1322   1.395       .  A
C1321      C1326   1.409       .  A
C1322      C1323   1.388       .  A
C1322      H1327   1.086       .  S
C1323      C1324   1.423       .  A
C1323      C1330   1.446       .  S
C1324      C1325   1.408       .  A
C1325      C1326   1.404       .  A
C1325      H1328   1.084       .  S
C1326      C1329   1.443       .  S
C1329      N1331   1.157       .  T
C1330      N1332   1.157       .  T
C1333      C1334   1.404       .  A
C1333      C1338   1.406       .  A
C1334      C1335   1.396       .  A
C1334      H1339   1.085       .  S
C1335      C1336   1.417       .  A
C1335      C1342   1.445       .  S
C1336      C1337   1.412       .  A
C1337      C1338   1.402       .  A
C1337      H1340   1.084       .  S
C1338      C1341   1.443       .  S
C1341      N1343   1.157       .  T
C1342      N1344   1.158       .  T
C1345      C1346   1.404       .  A
C1345      C1350   1.412       .  A
C1346      C1347   1.403       .  A
C1346      H1351   1.084       .  S
C1347      C1348   1.413       .  A
C1347      C1354   1.441       .  S
C1348      C1349   1.403       .  A
C1349      C1350   1.401       .  A
C1349      H1352   1.085       .  S
C1350      C1353   1.444       .  S
C1353      N1355   1.157       .  T
C1354      N1356   1.157       .  T
C1357      C1358   1.403       .  A
C1357      C1362   1.412       .  A
C1358      C1359   1.404       .  A
C1358      H1363   1.084       .  S
C1359      C1360   1.413       .  A
C1359      C1366   1.443       .  S
C1360      C1361   1.400       .  A
C1361      C1362   1.398       .  A
C1361      H1364   1.085       .  S
C1362      C1365   1.444       .  S
C1365      N1367   1.157       .  T
C1366      N1368   1.157       .  T
C1369      C1370   1.404       .  A
C1369      C1374   1.416       .  A
C1370      C1371   1.407       .  A
C1370      H1375   1.084       .  S
C1371      C1372   1.415       .  A
C1371      C1378   1.443       .  S
C1372      C1373   1.401       .  A
C1373      C1374   1.405       .  A
C1373      H1376   1.085       .  S
C1374      C1377   1.444       .  S
C1377      N1379   1.157       .  T
C1378      N1380   1.157       .  T
C1381      C1382   1.399       .  A
C1381      C1386   1.415       .  A
C1382      C1383   1.400       .  A
C1382      H1387   1.085       .  S
C1383      C1384   1.416       .  A
C1383      C1390   1.444       .  S
C1384      C1385   1.402       .  A
C1385      C1386   1.405       .  A
C1385      H1388   1.084       .  S
C1386      C1389   1.442       .  S
C1389      N1391   1.157       .  T
C1390      N1392   1.157       .  T
C1393      C1394   1.390       .  A
C1393      C1398   1.408       .  A
C1394      C1395   1.392       .  A
C1394      H1399   1.087       .  S
C1395      C1396   1.422       .  A
C1395      C1402   1.437       .  S
C1396      C1397   1.409       .  A
C1397      C1398   1.409       .  A
C1397      H1400   1.083       .  S
C1398      C1401   1.442       .  S
C1401      N1403   1.157       .  T
C1402      N1404   1.158       .  T
C1405      C1406   1.405       .  A
C1405      C1410   1.403       .  A
C1406      C1407   1.406       .  A
C1406      H1411   1.085       .  S
C1407      C1408   1.410       .  A
C1407      C1414   1.433       .  S
C1408      C1409   1.412       .  A
C1409      C1410   1.389       .  A
C1409      H1412   1.085       .  S
C1410      C1413   1.443       .  S
C1413      N1415   1.156       .  T
C1414      N1416   1.154   1_565  T
C1417      C1418   1.403       .  A
C1417      C1422   1.417       .  A
C1418      C1419   1.398       .  A
C1418      H1423   1.080       .  S
C1419      C1420   1.412       .  A
C1419      C1426   1.445       .  S
C1420      C1421   1.403       .  A
C1421      C1422   1.409       .  A
C1421      H1424   1.084       .  S
C1422      C1425   1.443       .  S
C1425      N1427   1.157   1_565  T
C1426      N1428   1.157       .  T
C1429      C1430   1.404       .  A
C1429      C1434   1.406       .  A
C1430      C1431   1.395       .  A
C1430      H1435   1.081       .  S
C1431      C1432   1.408       .  A
C1431      C1438   1.446       .  S
C1432      C1433   1.411       .  A
C1433      C1434   1.410       .  A
C1433      H1436   1.084       .  S
C1434      C1437   1.442       .  S
C1437      N1439   1.157       .  T
C1438      N1440   1.157       .  T
C1441      C1442   1.402       .  A
C1441      C1446   1.421       .  A
C1442      C1443   1.405       .  A
C1442      H1447   1.084       .  S
C1443      C1444   1.415       .  A
C1443      C1450   1.443       .  S
C1444      C1445   1.395       .  A
C1445      C1446   1.393       .  A
C1445      H1448   1.085       .  S
C1446      C1449   1.445       .  S
C1449      N1451   1.157       .  T
C1450      N1452   1.157       .  T
C1453      C1454   1.413       .  A
C1453      C1458   1.411       .  A
C1454      C1455   1.405       .  A
C1454      H1459   1.084       .  S
C1455      C1456   1.406       .  A
C1455      C1462   1.442       .  S
C1456      C1457   1.403       .  A
C1457      C1458   1.395       .  A
C1457      H1460   1.076       .  S
C1458      C1461   1.446       .  S
C1461      N1463   1.157       .  T
C1462      N1464   1.157       .  T
C1465      C1466   1.401       .  A
C1465      C1470   1.412       .  A
C1466      C1467   1.404       .  A
C1466      H1471   1.084       .  S
C1467      C1468   1.415       .  A
C1467      C1474   1.440       .  S
C1468      C1469   1.403       .  A
C1469      C1470   1.403       .  A
C1469      H1472   1.085       .  S
C1470      C1473   1.444       .  S
C1473      N1475   1.157       .  T
C1474      N1476   1.156       .  T
C1477      C1478   1.403       .  A
C1477      C1482   1.413       .  A
C1478      C1479   1.403       .  A
C1478      H1483   1.082       .  S
C1479      C1480   1.412       .  A
C1479      C1486   1.443       .  S
C1480      C1481   1.401       .  A
C1481      C1482   1.404       .  A
C1481      H1484   1.084       .  S
C1482      C1485   1.444       .  S
C1485      N1487   1.157       .  T
C1486      N1488   1.157       .  T
C1489      C1490   1.406       .  A
C1489      C1494   1.411       .  A
C1490      C1491   1.410       .  A
C1490      H1495   1.085       .  S
C1491      C1492   1.417       .  A
C1491      C1498   1.441       .  S
C1492      C1493   1.408       .  A
C1493      C1494   1.404       .  A
C1493      H1496   1.085       .  S
C1494      C1497   1.444       .  S
C1497      N1499   1.157       .  T
C1498      N1500   1.157       .  T
C1501      C1502   1.398       .  A
C1501      C1506   1.411       .  A
C1502      C1503   1.397       .  A
C1502      H1507   1.085       .  S
C1503      C1504   1.414       .  A
C1503      C1510   1.444       .  S
C1504      C1505   1.403       .  A
C1505      C1506   1.403       .  A
C1505      H1508   1.085       .  S
C1506      C1509   1.444       .  S
C1509      N1511   1.157       .  T
C1510      N1512   1.157       .  T
C1513      C1514   1.394       .  A
C1513      C1518   1.411       .  A
C1514      C1515   1.387       .  A
C1514      H1519   1.086       .  S
C1515      C1516   1.420       .  A
C1515      C1522   1.446       .  S
C1516      C1517   1.403       .  A
C1517      C1518   1.402       .  A
C1517      H1520   1.084       .  S
C1518      C1521   1.443       .  S
C1521      N1523   1.157       .  T
C1522      N1524   1.157       .  T
C1525      C1526   1.406       .  A
C1525      C1530   1.410       .  A
C1526      C1527   1.406       .  A
C1526      H1531   1.084       .  S
C1527      C1528   1.410       .  A
C1527      C1534   1.442       .  S
C1528      C1529   1.402       .  A
C1529      C1530   1.399       .  A
C1529      H1532   1.085       .  S
C1530      C1533   1.444       .  S
C1533      N1535   1.157       .  T
C1534      N1536   1.157       .  T
C1537      C1538   1.412       .  A
C1537      C1542   1.411       .  A
C1538      C1539   1.403       .  A
C1538      H1543   1.085       .  S
C1539      C1540   1.404       .  A
C1539      C1546   1.441       .  S
C1540      C1541   1.399       .  A
C1541      C1542   1.394       .  A
C1541      H1544   1.073       .  S
C1542      C1545   1.444       .  S
C1545      N1547   1.157       .  T
C1546      N1548   1.156       .  T
C1549      C1550   1.407       .  A
C1549      C1554   1.407       .  A
C1550      C1551   1.391       .  A
C1550      H1555   1.085       .  S
C1551      C1552   1.417       .  A
C1551      C1558   1.443       .  S
C1552      C1553   1.417       .  A
C1553      C1554   1.409       .  A
C1553      H1556   1.084       .  S
C1554      C1557   1.441       .  S
C1557      N1559   1.157       .  T
C1558      N1560   1.157       .  T
C1561      C1562   1.406       .  A
C1561      C1566   1.411       .  A
C1562      C1563   1.399       .  A
C1562      H1567   1.085       .  S
C1563      C1564   1.413       .  A
C1563      C1570   1.444       .  S
C1564      C1565   1.407       .  A
C1565      C1566   1.393       .  A
C1565      H1568   1.085       .  S
C1566      C1569   1.446       .  S
C1569      N1571   1.157       .  T
C1570      N1572   1.157       .  T
C1573      C1574   1.405       .  A
C1573      C1578   1.404       .  A
C1574      C1575   1.402       .  A
C1574      H1579   1.085       .  S
C1575      C1576   1.407       .  A
C1575      C1582   1.443       .  S
C1576      C1577   1.405       .  A
C1577      C1578   1.396       .  A
C1577      H1580   1.085       .  S
C1578      C1581   1.443       .  S
C1581      N1583   1.157       .  T
C1582      N1584   1.157       .  T
C1585      C1586   1.400       .  A
C1585      C1590   1.407       .  A
C1586      C1587   1.397       .  A
C1586      H1591   1.085       .  S
C1587      C1588   1.417       .  A
C1587      C1594   1.444       .  S
C1588      C1589   1.407       .  A
C1589      C1590   1.386       .  A
C1589      H1592   1.085       .  S
C1590      C1593   1.447       .  S
C1593      N1595   1.157       .  T
C1594      N1596   1.157       .  T
C1597      C1598   1.406       .  A
C1597      C1602   1.410       .  A
C1598      C1599   1.408       .  A
C1598      H1603   1.085       .  S
C1599      C1600   1.414       .  A
C1599      C1606   1.441       .  S
C1600      C1601   1.406       .  A
C1601      C1602   1.405       .  A
C1601      H1604   1.085       .  S
C1602      C1605   1.443       .  S
C1605      N1607   1.157       .  T
C1606      N1608   1.157       .  T
C1609      C1610   1.396       .  A
C1609      C1614   1.412       .  A
C1610      C1611   1.396       .  A
C1610      H1615   1.086       .  S
C1611      C1612   1.425       .  A
C1611      C1618   1.446       .  S
C1612      C1613   1.407       .  A
C1613      C1614   1.404       .  A
C1613      H1616   1.084       .  S
C1614      C1617   1.444       .  S
C1617      N1619   1.157       .  T
C1618      N1620   1.157       .  T
C1621      C1622   1.407       .  A
C1621      C1626   1.421       .  A
C1622      C1623   1.402       .  A
C1622      H1627   1.084       .  S
C1623      C1624   1.410       .  A
C1623      C1630   1.443       .  S
C1624      C1625   1.402       .  A
C1625      C1626   1.402       .  A
C1625      H1628   1.085       .  S
C1626      C1629   1.444       .  S
C1629      N1631   1.157       .  T
C1630      N1632   1.157       .  T
C1633      C1634   1.397       .  A
C1633      C1638   1.401       .  A
C1634      C1635   1.403       .  A
C1634      H1639   1.085       .  S
C1635      C1636   1.428       .  A
C1635      C1642   1.444       .  S
C1636      C1637   1.399       .  A
C1637      C1638   1.382       .  A
C1637      H1640   1.081       .  S
C1638      C1641   1.430       .  S
C1641      N1643   1.153       .  T
C1642      N1644   1.157       .  T
C1645      C1646   1.407       .  A
C1645      C1650   1.429       .  A
C1646      C1647   1.408       .  A
C1646      H1651   1.084       .  S
C1647      C1648   1.415       .  A
C1647      C1654   1.443       .  S
C1648      C1649   1.394       .  A
C1649      C1650   1.393       .  A
C1649      H1652   1.086       .  S
C1650      C1653   1.447       .  S
C1653      N1655   1.158       .  T
C1654      N1656   1.157       .  T
C1657      C1658   1.406       .  A
C1657      C1662   1.409       .  A
C1658      C1659   1.402       .  A
C1658      H1663   1.085       .  S
C1659      C1660   1.415       .  A
C1659      C1666   1.444       .  S
C1660      C1661   1.406       .  A
C1661      C1662   1.392       .  A
C1661      H1664   1.082       .  S
C1662      C1665   1.442       .  S
C1665      N1667   1.156       .  T
C1666      N1668   1.157       .  T
C1669      C1670   1.412       .  A
C1669      C1674   1.414       .  A
C1670      C1671   1.405       .  A
C1670      H1675   1.084       .  S
C1671      C1672   1.408       .  A
C1671      C1678   1.443       .  S
C1672      C1673   1.403       .  A
C1673      C1674   1.392       .  A
C1673      H1676   1.086       .  S
C1674      C1677   1.442       .  S
C1677      N1679   1.156       .  T
C1678      N1680   1.157       .  T
C1681      C1682   1.407       .  A
C1681      C1686   1.421       .  A
C1682      C1683   1.398       .  A
C1682      H1687   1.084       .  S
C1683      C1684   1.409       .  A
C1683      C1690   1.445       .  S
C1684      C1685   1.398       .  A
C1685      C1686   1.402       .  A
C1685      H1688   1.085       .  S
C1686      C1689   1.444       .  S
C1689      N1691   1.157       .  T
C1690      N1692   1.157       .  T
C1693      C1694   1.406       .  A
C1693      C1698   1.404       .  A
C1694      C1695   1.397       .  A
C1694      H1699   1.085       .  S
C1695      C1696   1.409       .  A
C1695      C1702   1.445   1_655  S
C1696      C1697   1.409       .  A
C1697      C1698   1.402       .  A
C1697      H1700   1.085       .  S
C1698      C1701   1.443       .  S
C1701      N1703   1.157       .  T
C1702      N1704   1.157       .  T
C1705      C1706   1.395       .  A
C1705      C1710   1.416       .  A
C1706      C1707   1.399       .  A
C1706      H1711   1.086       .  S
C1707      C1708   1.431       .  A
C1707      C1714   1.446       .  S
C1708      C1709   1.406       .  A
C1709      C1710   1.408       .  A
C1709      H1712   1.084       .  S
C1710      C1713   1.443       .  S
C1713      N1715   1.157       .  T
C1714      N1716   1.158       .  T
C1717      C1718   1.405       .  A
C1717      C1722   1.408       .  A
C1718      C1719   1.395       .  A
C1718      H1723   1.085       .  S
C1719      C1720   1.407       .  A
C1719      C1726   1.441       .  S
C1720      C1721   1.408       .  A
C1721      C1722   1.406       .  A
C1721      H1724   1.084       .  S
C1722      C1725   1.442       .  S
C1725      N1727   1.157       .  T
C1726      N1728   1.156       .  T
C1729      C1730   1.410       .  A
C1729      C1734   1.418       .  A
C1730      C1731   1.400       .  A
C1730      H1735   1.084       .  S
C1731      C1732   1.404       .  A
C1731      C1738   1.443       .  S
C1732      C1733   1.400       .  A
C1733      C1734   1.395       .  A
C1733      H1736   1.086       .  S
C1734      C1737   1.446       .  S
C1737      N1739   1.158       .  T
C1738      N1740   1.157       .  T
C1741      C1742   1.403       .  A
C1741      C1746   1.406       .  A
C1742      C1743   1.401       .  A
C1742      H1747   1.085       .  S
C1743      C1744   1.410       .  A
C1743      C1750   1.437       .  S
C1744      C1745   1.409       .  A
C1745      C1746   1.394       .  A
C1745      H1748   1.085       .  S
C1746      C1749   1.444       .  S
C1749      N1751   1.157       .  T
C1750      N1752   1.155       .  T
C1753      C1754   1.408       .  A
C1753      C1758   1.421       .  A
C1754      C1755   1.403       .  A
C1754      H1759   1.084       .  S
C1755      C1756   1.409       .  A
C1755      C1762   1.443       .  S
C1756      C1757   1.400       .  A
C1757      C1758   1.395       .  A
C1757      H1760   1.086       .  S
C1758      C1761   1.446       .  S
C1761      N1763   1.158       .  T
C1762      N1764   1.157       .  T
C1765      C1766   1.417       .  A
C1765      C1770   1.414       .  A
C1766      C1767   1.417       .  A
C1766      H1771   1.083       .  S
C1767      C1768   1.426       .  A
C1767      C1774   1.442       .  S
C1768      C1769   1.416       .  A
C1769      C1770   1.403       .  A
C1769      H1772   1.077       .  S
C1770      C1773   1.444       .  S
C1773      N1775   1.158       .  T
C1774      N1776   1.157       .  T
C1777      C1778   1.400       .  A
C1777      C1782   1.416       .  A
C1778      C1779   1.394       .  A
C1778      H1783   1.083       .  S
C1779      C1780   1.428       .  A
C1779      C1786   1.438       .  S
C1780      C1781   1.420       .  A
C1781      C1782   1.413       .  A
C1781      H1784   1.083       .  S
C1782      C1785   1.443       .  S
C1785      N1787   1.157       .  T
C1786      N1788   1.158       .  T
C1789      C1790   1.415       .  A
C1789      C1794   1.411       .  A
C1790      C1791   1.416       .  A
C1790      H1795   1.082       .  S
C1791      C1792   1.431       .  A
C1791      C1798   1.442       .  S
C1792      C1793   1.408       .  A
C1793      C1794   1.396       .  A
C1793      H1796   1.079       .  S
C1794      C1797   1.440       .  S
C1797      N1799   1.157       .  T
C1798      N1800   1.157       .  T
C1801      C1802   1.416       .  A
C1801      C1806   1.419       .  A
C1802      C1803   1.412       .  A
C1802      H1807   1.079       .  S
C1803      C1804   1.412       .  A
C1803      C1810   1.436       .  S
C1804      C1805   1.407       .  A
C1805      C1806   1.399       .  A
C1805      H1808   1.066       .  S
C1806      C1809   1.445       .  S
C1809      N1811   1.157       .  T
C1810      N1812   1.157       .  T
C1813      C1814   1.420       .  A
C1813      C1818   1.418       .  A
C1814      C1815   1.393       .  A
C1814      H1819   1.082       .  S
C1815      C1816   1.394       .  A
C1815      C1822   1.443       .  S
C1816      C1817   1.403       .  A
C1817      C1818   1.403       .  A
C1817      H1820   1.085       .  S
C1818      C1821   1.443       .  S
C1821      N1823   1.157       .  T
C1822      N1824   1.157       .  T
C1825      C1826   1.406       .  A
C1825      C1830   1.412       .  A
C1826      C1827   1.392       .  A
C1826      H1831   1.085       .  S
C1827      C1828   1.415       .  A
C1827      C1834   1.445       .  S
C1828      C1829   1.408       .  A
C1829      C1830   1.408       .  A
C1829      H1832   1.082   1_556  S
C1830      C1833   1.442       .  S
C1833      N1835   1.157       .  T
C1834      N1836   1.157       .  T
C1837      C1838   1.404       .  A
C1837      C1842   1.419       .  A
C1838      C1839   1.405       .  A
C1838      H1843   1.084       .  S
C1839      C1840   1.413       .  A
C1839      C1846   1.443       .  S
C1840      C1841   1.399       .  A
C1841      C1842   1.396       .  A
C1841      H1844   1.085       .  S
C1842      C1845   1.446       .  S
C1845      N1847   1.157       .  T
C1846      N1848   1.157       .  T
C1849      C1850   1.400       .  A
C1849      C1854   1.410       .  A
C1850      C1851   1.397       .  A
C1850      H1855   1.086       .  S
C1851      C1852   1.415       .  A
C1851      C1858   1.444       .  S
C1852      C1853   1.407       .  A
C1853      C1854   1.411       .  A
C1853      H1856   1.084   1_556  S
C1854      C1857   1.441       .  S
C1857      N1859   1.157       .  T
C1858      N1860   1.158       .  T
C1861      C1862   1.406       .  A
C1861      C1866   1.412       .  A
C1862      C1863   1.395       .  A
C1862      H1867   1.084       .  S
C1863      C1864   1.416       .  A
C1863      C1870   1.444       .  S
C1864      C1865   1.406       .  A
C1865      C1866   1.403       .  A
C1865      H1868   1.085       .  S
C1866      C1869   1.441       .  S
C1869      N1871   1.156       .  T
C1870      N1872   1.157       .  T
C1873      C1874   1.410       .  A
C1873      C1878   1.417       .  A
C1874      C1875   1.401       .  A
C1874      H1879   1.084   1_556  S
C1875      C1876   1.408       .  A
C1875      C1882   1.444       .  S
C1876      C1877   1.404       .  A
C1877      C1878   1.398       .  A
C1877      H1880   1.085       .  S
C1878      C1881   1.444       .  S
C1881      N1883   1.157       .  T
C1882      N1884   1.157       .  T
C1885      C1886   1.407       .  A
C1885      C1890   1.409       .  A
C1886      C1887   1.409       .  A
C1886      H1891   1.084       .  S
C1887      C1888   1.410       .  A
C1887      C1894   1.442       .  S
C1888      C1889   1.404       .  A
C1889      C1890   1.402       .  A
C1889      H1892   1.085       .  S
C1890      C1893   1.443       .  S
C1893      N1895   1.157       .  T
C1894      N1896   1.157       .  T
C1897      C1898   1.408       .  A
C1897      C1902   1.430       .  A
C1898      C1899   1.399       .  A
C1898      H1903   1.080       .  S
C1899      C1900   1.414       .  A
C1899      C1906   1.442       .  S
C1900      C1901   1.397       .  A
C1901      C1902   1.406       .  A
C1901      H1904   1.085   1_556  S
C1902      C1905   1.444       .  S
C1905      N1907   1.158       .  T
C1906      N1908   1.156   1_556  T
C1909      C1910   1.402       .  A
C1909      C1914   1.405       .  A
C1910      C1911   1.407       .  A
C1910      H1915   1.084       .  S
C1911      C1912   1.415       .  A
C1911      C1918   1.438       .  S
C1912      C1913   1.409       .  A
C1913      C1914   1.388       .  A
C1913      H1916   1.084       .  S
C1914      C1917   1.446       .  S
C1917      N1919   1.157       .  T
C1918      N1920   1.155       .  T
C1921      C1922   1.403       .  A
C1921      C1926   1.410       .  A
C1922      C1923   1.396       .  A
C1922      H1927   1.084       .  S
C1923      C1924   1.409       .  A
C1923      C1930   1.445       .  S
C1924      C1925   1.405       .  A
C1925      C1926   1.408       .  A
C1925      H1928   1.084       .  S
C1926      C1929   1.442       .  S
C1929      N1931   1.157       .  T
C1930      N1932   1.157       .  T
C1933      C1934   1.401       .  A
C1933      C1938   1.410       .  A
C1934      C1935   1.389       .  A
C1934      H1939   1.084       .  S
C1935      C1936   1.411       .  A
C1935      C1942   1.446       .  S
C1936      C1937   1.406       .  A
C1937      C1938   1.405       .  A
C1937      H1940   1.084       .  S
C1938      C1941   1.443       .  S
C1941      N1943   1.157       .  T
C1942      N1944   1.157       .  T
C1945      C1946   1.408       .  A
C1945      C1950   1.418       .  A
C1946      C1947   1.396       .  A
C1946      H1951   1.084       .  S
C1947      C1948   1.413       .  A
C1947      C1954   1.444       .  S
C1948      C1949   1.408       .  A
C1949      C1950   1.406       .  A
C1949      H1952   1.085       .  S
C1950      C1953   1.443       .  S
C1953      N1955   1.157       .  T
C1954      N1956   1.157       .  T
C1957      C1958   1.415       .  A
C1957      C1962   1.418       .  A
C1958      C1959   1.402       .  A
C1958      H1963   1.084       .  S
C1959      C1960   1.406       .  A
C1959      C1966   1.444       .  S
C1960      C1961   1.403       .  A
C1961      C1962   1.396       .  A
C1961      H1964   1.085       .  S
C1962      C1965   1.440       .  S
C1965      N1967   1.156       .  T
C1966      N1968   1.157       .  T
C1969      C1970   1.404       .  A
C1969      C1974   1.414       .  A
C1970      C1971   1.405       .  A
C1970      H1975   1.084       .  S
C1971      C1972   1.412       .  A
C1971      C1978   1.443       .  S
C1972      C1973   1.398       .  A
C1973      C1974   1.396       .  A
C1973      H1976   1.085       .  S
C1974      C1977   1.445       .  S
C1977      N1979   1.157       .  T
C1978      N1980   1.157       .  T
C1981      C1982   1.408       .  A
C1981      C1986   1.419       .  A
C1982      C1983   1.397       .  A
C1982      H1987   1.074       .  S
C1983      C1984   1.407       .  A
C1983      C1990   1.445       .  S
C1984      C1985   1.401       .  A
C1985      C1986   1.409       .  A
C1985      H1988   1.084       .  S
C1986      C1989   1.441       .  S
C1989      N1991   1.157       .  T
C1990      N1992   1.157       .  T
C1993      C1994   1.414       .  A
C1993      C1998   1.420       .  A
C1994      C1995   1.413       .  A
C1994      H1999   1.084       .  S
C1995      C1996   1.422       .  A
C1995      C2002   1.438       .  S
C1996      C1997   1.403       .  A
C1997      C1998   1.392       .  A
C1997      H2000   1.084       .  S
C1998      C2001   1.438       .  S
C2001      N2003   1.158       .  T
C2002      N2004   1.156       .  T
C2005      C2006   1.401       .  A
C2005      C2010   1.408       .  A
C2006      C2007   1.402       .  A
C2006      H2011   1.085       .  S
C2007      C2008   1.420       .  A
C2007      C2014   1.443       .  S
C2008      C2009   1.408       .  A
C2009      C2010   1.401       .  A
C2009      H2012   1.084       .  S
C2010      C2013   1.444       .  S
C2013      N2015   1.157       .  T
C2014      N2016   1.157   1_565  T
C2017      C2018   1.405       .  A
C2017      C2022   1.423       .  A
C2018      C2019   1.400       .  A
C2018      H2023   1.084       .  S
C2019      C2020   1.419       .  A
C2019      C2026   1.443       .  S
C2020      C2021   1.402       .  A
C2021      C2022   1.405       .  A
C2021      H2024   1.085       .  S
C2022      C2025   1.444       .  S
C2025      N2027   1.157       .  T
C2026      N2028   1.157       .  T
C2029      C2030   1.414       .  A
C2029      C2034   1.417       .  A
C2030      C2031   1.411       .  A
C2030      H2035   1.081       .  S
C2031      C2032   1.423       .  A
C2031      C2038   1.443       .  S
C2032      C2033   1.410       .  A
C2033      C2034   1.404       .  A
C2033      H2036   1.081       .  S
C2034      C2037   1.442       .  S
C2037      N2039   1.157       .  T
C2038      N2040   1.157       .  T
C2041      C2042   1.409       .  A
C2041      C2046   1.416       .  A
C2042      C2043   1.400       .  A
C2042      H2047   1.084       .  S
C2043      C2044   1.418       .  A
C2043      C2050   1.445   1_556  S
C2044      C2045   1.411       .  A
C2045      C2046   1.410       .  A
C2045      H2048   1.084       .  S
C2046      C2049   1.442       .  S
C2049      N2051   1.157       .  T
C2050      N2052   1.157       .  T
C2053      C2054   1.405       .  A
C2053      C2058   1.414       .  A
C2054      C2055   1.396       .  A
C2054      H2059   1.085       .  S
C2055      C2056   1.416       .  A
C2055      C2062   1.443   1_556  S
C2056      C2057   1.410       .  A
C2057      C2058   1.407       .  A
C2057      H2060   1.084       .  S
C2058      C2061   1.443       .  S
C2061      N2063   1.157       .  T
C2062      N2064   1.157       .  T
C2065      C2066   1.402       .  A
C2065      C2070   1.410       .  A
C2066      C2067   1.405       .  A
C2066      H2071   1.085       .  S
C2067      C2068   1.421       .  A
C2067      C2074   1.442       .  S
C2068      C2069   1.407       .  A
C2069      C2070   1.404       .  A
C2069      H2072   1.084       .  S
C2070      C2073   1.443       .  S
C2073      N2075   1.157       .  T
C2074      N2076   1.157       .  T
C2077      C2078   1.403       .  A
C2077      C2082   1.404       .  A
C2078      C2079   1.399       .  A
C2078      H2083   1.085       .  S
C2079      C2080   1.410       .  A
C2079      C2086   1.444       .  S
C2080      C2081   1.408       .  A
C2081      C2082   1.398       .  A
C2081      H2084   1.085       .  S
C2082      C2085   1.442       .  S
C2085      N2087   1.156       .  T
C2086      N2088   1.157       .  T
C2089      C2090   1.406       .  A
C2089      C2094   1.417       .  A
C2090      C2091   1.400       .  A
C2090      H2095   1.084       .  S
C2091      C2092   1.408       .  A
C2091      C2098   1.443       .  S
C2092      C2093   1.400       .  A
C2093      C2094   1.398       .  A
C2093      H2096   1.085       .  S
C2094      C2097   1.446       .  S
C2097      N2099   1.157       .  T
C2098      N2100   1.157       .  T
C2101      C2102   1.409       .  A
C2101      C2106   1.398       .  A
C2102      C2103   1.405       .  A
C2102      H2107   1.085       .  S
C2103      C2104   1.408       .  A
C2103      C2110   1.442       .  S
C2104      C2105   1.414       .  A
C2105      C2106   1.391       .  A
C2105      H2108   1.084       .  S
C2106      C2109   1.442   1_655  S
C2109      N2111   1.157       .  T
C2110      N2112   1.157       .  T
C2113      C2114   1.402       .  A
C2113      C2118   1.420       .  A
C2114      C2115   1.407       .  A
C2114      H2119   1.085       .  S
C2115      C2116   1.425       .  A
C2115      C2122   1.437       .  S
C2116      C2117   1.411       .  A
C2117      C2118   1.408       .  A
C2117      H2120   1.076       .  S
C2118      C2121   1.442       .  S
C2121      N2123   1.157       .  T
C2122      N2124   1.156       .  T
C2125      C2126   1.399       .  A
C2125      C2130   1.409       .  A
C2126      C2127   1.396       .  A
C2126      H2131   1.085       .  S
C2127      C2128   1.415       .  A
C2127      C2134   1.445       .  S
C2128      C2129   1.406       .  A
C2129      C2130   1.406       .  A
C2129      H2132   1.085       .  S
C2130      C2133   1.442       .  S
C2133      N2135   1.157       .  T
C2134      N2136   1.157       .  T
C2137      C2138   1.403       .  A
C2137      C2142   1.420       .  A
C2138      C2139   1.392       .  A
C2138      H2143   1.085       .  S
C2139      C2140   1.416       .  A
C2139      C2146   1.446       .  S
C2140      C2141   1.401       .  A
C2141      C2142   1.403       .  A
C2141      H2144   1.085       .  S
C2142      C2145   1.443       .  S
C2145      N2147   1.157   1_565  T
C2146      N2148   1.157       .  T
C2149      C2150   1.405       .  A
C2149      C2154   1.412       .  A
C2150      C2151   1.402       .  A
C2150      H2155   1.085       .  S
C2151      C2152   1.419       .  A
C2151      C2158   1.444       .  S
C2152      C2153   1.404       .  A
C2153      C2154   1.401       .  A
C2153      H2156   1.083       .  S
C2154      C2157   1.444       .  S
C2157      N2159   1.157       .  T
C2158      N2160   1.157       .  T
C2161      C2162   1.407       .  A
C2161      C2166   1.412       .  A
C2162      C2163   1.390       .  A
C2162      H2167   1.085       .  S
C2163      C2164   1.411       .  A
C2163      C2170   1.444       .  S
C2164      C2165   1.408       .  A
C2165      C2166   1.400       .  A
C2165      H2168   1.085       .  S
C2166      C2169   1.444       .  S
C2169      N2171   1.157       .  T
C2170      N2172   1.157       .  T
C2173      C2174   1.396       .  A
C2173      C2178   1.410       .  A
C2174      C2175   1.395       .  A
C2174      H2179   1.086       .  S
C2175      C2176   1.423       .  A
C2175      C2182   1.446       .  S
C2176      C2177   1.406       .  A
C2177      C2178   1.402       .  A
C2177      H2180   1.084       .  S
C2178      C2181   1.443       .  S
C2181      N2183   1.157       .  T
C2182      N2184   1.158       .  T
C2185      C2186   1.396       .  A
C2185      C2190   1.410       .  A
C2186      C2187   1.394       .  A
C2186      H2191   1.086       .  S
C2187      C2188   1.417       .  A
C2187      C2194   1.441       .  S
C2188      C2189   1.409       .  A
C2189      C2190   1.413       .  A
C2189      H2192   1.084       .  S
C2190      C2193   1.441       .  S
C2193      N2195   1.157       .  T
C2194      N2196   1.157       .  T
C2197      C2198   1.404       .  A
C2197      C2202   1.408       .  A
C2198      C2199   1.407       .  A
C2198      H2203   1.085       .  S
C2199      C2200   1.418       .  A
C2199      C2206   1.443   1_556  S
C2200      C2201   1.411       .  A
C2201      C2202   1.400       .  A
C2201      H2204   1.085       .  S
C2202      C2205   1.445       .  S
C2205      N2207   1.157       .  T
C2206      N2208   1.157       .  T
C2209      C2210   1.403       .  A
C2209      C2214   1.412       .  A
C2210      C2211   1.405       .  A
C2210      H2215   1.085       .  S
C2211      C2212   1.414       .  A
C2211      C2218   1.443       .  S
C2212      C2213   1.404       .  A
C2213      C2214   1.396       .  A
C2213      H2216   1.083       .  S
C2214      C2217   1.443       .  S
C2217      N2219   1.157       .  T
C2218      N2220   1.157       .  T
C2221      C2222   1.396       .  A
C2221      C2226   1.410       .  A
C2222      C2223   1.388       .  A
C2222      H2227   1.083       .  S
C2223      C2224   1.417       .  A
C2223      C2230   1.445       .  S
C2224      C2225   1.406       .  A
C2225      C2226   1.406       .  A
C2225      H2228   1.084       .  S
C2226      C2229   1.442       .  S
C2229      N2231   1.157       .  T
C2230      N2232   1.157       .  T
C2233      C2234   1.400       .  A
C2233      C2238   1.409       .  A
C2234      C2235   1.396       .  A
C2234      H2239   1.085       .  S
C2235      C2236   1.421       .  A
C2235      C2242   1.445       .  S
C2236      C2237   1.409       .  A
C2237      C2238   1.401       .  A
C2237      H2240   1.084       .  S
C2238      C2241   1.444       .  S
C2241      N2243   1.157       .  T
C2242      N2244   1.157       .  T
C2245      C2246   1.398       .  A
C2245      C2250   1.412       .  A
C2246      C2247   1.391       .  A
C2246      H2251   1.086       .  S
C2247      C2248   1.420       .  A
C2247      C2254   1.445       .  S
C2248      C2249   1.409       .  A
C2249      C2250   1.414       .  A
C2249      H2252   1.084       .  S
C2250      C2253   1.441       .  S
C2253      N2255   1.157       .  T
C2254      N2256   1.157       .  T
C2257      C2258   1.407       .  A
C2257      C2262   1.419       .  A
C2258      C2259   1.405       .  A
C2258      H2263   1.084       .  S
C2259      C2260   1.408       .  A
C2259      C2266   1.442       .  S
C2260      C2261   1.396       .  A
C2261      C2262   1.394       .  A
C2261      H2264   1.086       .  S
C2262      C2265   1.442       .  S
C2265      N2267   1.157       .  T
C2266      N2268   1.157       .  T
C2269      C2270   1.399       .  A
C2269      C2274   1.409       .  A
C2270      C2271   1.395       .  A
C2270      H2275   1.085       .  S
C2271      C2272   1.410       .  A
C2271      C2278   1.443       .  S
C2272      C2273   1.405       .  A
C2273      C2274   1.402       .  A
C2273      H2276   1.084       .  S
C2274      C2277   1.443       .  S
C2277      N2279   1.157       .  T
C2278      N2280   1.157       .  T
C2281      C2282   1.410       .  A
C2281      C2286   1.427       .  A
C2282      C2283   1.403       .  A
C2282      H2287   1.084       .  S
C2283      C2284   1.411       .  A
C2283      C2290   1.442       .  S
C2284      C2285   1.392       .  A
C2285      C2286   1.386       .  A
C2285      H2288   1.085       .  S
C2286      C2289   1.443       .  S
C2289      N2291   1.157       .  T
C2290      N2292   1.157       .  T
C2293      C2294   1.403       .  A
C2293      C2298   1.404       .  A
C2294      C2295   1.391       .  A
C2294      H2299   1.083       .  S
C2295      C2296   1.401       .  A
C2295      C2302   1.442       .  S
C2296      C2297   1.408       .  A
C2297      C2298   1.401       .  A
C2297      H2300   1.085       .  S
C2298      C2301   1.442       .  S
C2301      N2303   1.157       .  T
C2302      N2304   1.156       .  T
C2305      C2306   1.409       .  A
C2305      C2310   1.411       .  A
C2306      C2307   1.412       .  A
C2306      H2311   1.084       .  S
C2307      C2308   1.412       .  A
C2307      C2314   1.442       .  S
C2308      C2309   1.401       .  A
C2309      C2310   1.394       .  A
C2309      H2312   1.086       .  S
C2310      C2313   1.438   1_565  S
C2313      N2315   1.155       .  T
C2314      N2316   1.157       .  T
C2317      C2318   1.410       .  A
C2317      C2322   1.417       .  A
C2318      C2319   1.400       .  A
C2318      H2323   1.084       .  S
C2319      C2320   1.403       .  A
C2319      C2326   1.443       .  S
C2320      C2321   1.397       .  A
C2321      C2322   1.394       .  A
C2321      H2324   1.085       .  S
C2322      C2325   1.445       .  S
C2325      N2327   1.157       .  T
C2326      N2328   1.157       .  T
C2329      C2330   1.405       .  A
C2329      C2334   1.422       .  A
C2330      C2331   1.403       .  A
C2330      H2335   1.085       .  S
C2331      C2332   1.415       .  A
C2331      C2338   1.444       .  S
C2332      C2333   1.403       .  A
C2333      C2334   1.404       .  A
C2333      H2336   1.085       .  S
C2334      C2337   1.444       .  S
C2337      N2339   1.158       .  T
C2338      N2340   1.157       .  T
C2341      C2342   1.401       .  A
C2341      C2346   1.413       .  A
C2342      C2343   1.403       .  A
C2342      H2347   1.085       .  S
C2343      C2344   1.412       .  A
C2343      C2350   1.439       .  S
C2344      C2345   1.402       .  A
C2345      C2346   1.392       .  A
C2345      H2348   1.086       .  S
C2346      C2349   1.446       .  S
C2349      N2351   1.157       .  T
C2350      N2352   1.156       .  T
C2353      C2354   1.398       .  A
C2353      C2358   1.408       .  A
C2354      C2355   1.394       .  A
C2354      H2359   1.086       .  S
C2355      C2356   1.418       .  A
C2355      C2362   1.446       .  S
C2356      C2357   1.406       .  A
C2357      C2358   1.402       .  A
C2357      H2360   1.084       .  S
C2358      C2361   1.443       .  S
C2361      N2363   1.157       .  T
C2362      N2364   1.157   1_655  T
C2365      C2366   1.404       .  A
C2365      C2370   1.411       .  A
C2366      C2367   1.398       .  A
C2366      H2371   1.085       .  S
C2367      C2368   1.408       .  A
C2367      C2374   1.444       .  S
C2368      C2369   1.405       .  A
C2369      C2370   1.405       .  A
C2369      H2372   1.084       .  S
C2370      C2373   1.442       .  S
C2373      N2375   1.157       .  T
C2374      N2376   1.157       .  T
C2377      C2378   1.406       .  A
C2377      C2382   1.407       .  A
C2378      C2379   1.410       .  A
C2378      H2383   1.084       .  S
C2379      C2380   1.415       .  A
C2379      C2386   1.442       .  S
C2380      C2381   1.409       .  A
C2381      C2382   1.392       .  A
C2381      H2384   1.085   1_556  S
C2382      C2385   1.446       .  S
C2385      N2387   1.157       .  T
C2386      N2388   1.157       .  T
C2389      C2390   1.404       .  A
C2389      C2394   1.419       .  A
C2390      C2391   1.405       .  A
C2390      H2395   1.084       .  S
C2391      C2392   1.419       .  A
C2391      C2398   1.444       .  S
C2392      C2393   1.404       .  A
C2393      C2394   1.395       .  A
C2393      H2396   1.085   1_556  S
C2394      C2397   1.446   1_556  S
C2397      N2399   1.157       .  T
C2398      N2400   1.157       .  T
C2401      C2402   1.407       .  A
C2401      C2406   1.410       .  A
C2402      C2403   1.410       .  A
C2402      H2407   1.084       .  S
C2403      C2404   1.412       .  A
C2403      C2410   1.442       .  S
C2404      C2405   1.404       .  A
C2405      C2406   1.402       .  A
C2405      H2408   1.084       .  S
C2406      C2409   1.443       .  S
C2409      N2411   1.157       .  T
C2410      N2412   1.157       .  T
C2413      C2414   1.406       .  A
C2413      C2418   1.415       .  A
C2414      C2415   1.407       .  A
C2414      H2419   1.084       .  S
C2415      C2416   1.415       .  A
C2415      C2422   1.443       .  S
C2416      C2417   1.401       .  A
C2417      C2418   1.404       .  A
C2417      H2420   1.085       .  S
C2418      C2421   1.442       .  S
C2421      N2423   1.157       .  T
C2422      N2424   1.157       .  T
C2425      C2426   1.414       .  A
C2425      C2430   1.427       .  A
C2426      C2427   1.404       .  A
C2426      H2431   1.069       .  S
C2427      C2428   1.411       .  A
C2427      C2434   1.445       .  S
C2428      C2429   1.406       .  A
C2429      C2430   1.414       .  A
C2429      H2432   1.085       .  S
C2430      C2433   1.440       .  S
C2433      N2435   1.156       .  T
C2434      N2436   1.157       .  T
C2437      C2438   1.405       .  A
C2437      C2442   1.422       .  A
C2438      C2439   1.403       .  A
C2438      H2443   1.078       .  S
C2439      C2440   1.411       .  A
C2439      C2446   1.443       .  S
C2440      C2441   1.406       .  A
C2441      C2442   1.405       .  A
C2441      H2444   1.085       .  S
C2442      C2445   1.444       .  S
C2445      N2447   1.158       .  T
C2446      N2448   1.157       .  T
C2449      C2450   1.401       .  A
C2449      C2454   1.414       .  A
C2450      C2451   1.401       .  A
C2450      H2455   1.085       .  S
C2451      C2452   1.415       .  A
C2451      C2458   1.444       .  S
C2452      C2453   1.402       .  A
C2453      C2454   1.395       .  A
C2453      H2456   1.085       .  S
C2454      C2457   1.446       .  S
C2457      N2459   1.157       .  T
C2458      N2460   1.157       .  T
C2461      C2462   1.412       .  A
C2461      C2466   1.412       .  A
C2462      C2463   1.405       .  A
C2462      H2467   1.084       .  S
C2463      C2464   1.405       .  A
C2463      C2470   1.443       .  S
C2464      C2465   1.402       .  A
C2465      C2466   1.389       .  A
C2465      H2468   1.086       .  S
C2466      C2469   1.445       .  S
C2469      N2471   1.157       .  T
C2470      N2472   1.157       .  T
C2473      C2474   1.405       .  A
C2473      C2478   1.406       .  A
C2474      C2475   1.403       .  A
C2474      H2479   1.084       .  S
C2475      C2476   1.414       .  A
C2475      C2482   1.441       .  S
C2476      C2477   1.409       .  A
C2477      C2478   1.399       .  A
C2477      H2480   1.085       .  S
C2478      C2481   1.443       .  S
C2481      N2483   1.157       .  T
C2482      N2484   1.157       .  T
C2485      C2486   1.395       .  A
C2485      C2490   1.414       .  A
C2486      C2487   1.393       .  A
C2486      H2491   1.086       .  S
C2487      C2488   1.420       .  A
C2487      C2494   1.439       .  S
C2488      C2489   1.405       .  A
C2489      C2490   1.409       .  A
C2489      H2492   1.081       .  S
C2490      C2493   1.443       .  S
C2493      N2495   1.157       .  T
C2494      N2496   1.158       .  T
C2497      C2498   1.407       .  A
C2497      C2502   1.416       .  A
C2498      C2499   1.400       .  A
C2498      H2503   1.085       .  S
C2499      C2500   1.406       .  A
C2499      C2506   1.443       .  S
C2500      C2501   1.396       .  A
C2501      C2502   1.392       .  A
C2501      H2504   1.086       .  S
C2502      C2505   1.442       .  S
C2505      N2507   1.157       .  T
C2506      N2508   1.157       .  T
C2509      C2510   1.407       .  A
C2509      C2514   1.407       .  A
C2510      C2511   1.405       .  A
C2510      H2515   1.085       .  S
C2511      C2512   1.410       .  A
C2511      C2518   1.442       .  S
C2512      C2513   1.408       .  A
C2513      C2514   1.400       .  A
C2513      H2516   1.085       .  S
C2514      C2517   1.443       .  S
C2517      N2519   1.157       .  T
C2518      N2520   1.157       .  T
C2521      C2522   1.395       .  A
C2521      C2526   1.410       .  A
C2522      C2523   1.390       .  A
C2522      H2527   1.087       .  S
C2523      C2524   1.415       .  A
C2523      C2530   1.441       .  S
C2524      C2525   1.407       .  A
C2525      C2526   1.411       .  A
C2525      H2528   1.084       .  S
C2526      C2529   1.442       .  S
C2529      N2531   1.157       .  T
C2530      N2532   1.157   1_556  T
C2533      C2534   1.405       .  A
C2533      C2538   1.407       .  A
C2534      C2535   1.398   1_556  A
C2534      H2539   1.085       .  S
C2535      C2536   1.407   1_554  A
C2535      C2542   1.445       .  S
C2536      C2537   1.403       .  A
C2537      C2538   1.397       .  A
C2537      H2540   1.085       .  S
C2538      C2541   1.444       .  S
C2541      N2543   1.157       .  T
C2542      N2544   1.157       .  T
C2545      C2546   1.406       .  A
C2545      C2550   1.422       .  A
C2546      C2547   1.390       .  A
C2546      H2551   1.082       .  S
C2547      C2548   1.408       .  A
C2547      C2554   1.441       .  S
C2548      C2549   1.419       .  A
C2549      C2550   1.413       .  A
C2549      H2552   1.078       .  S
C2550      C2553   1.443       .  S
C2553      N2555   1.157       .  T
C2554      N2556   1.157       .  T
