geometry optimzed in LAMMPS
_audit_creation_date              2020-11-30 
_audit_creation_method            'lammps2cif' 
_symmetry_space_group_name_H-M    'P1' 
_symmetry_Int_Tables_number       1 
_symmetry_cell_setting            triclinic 
loop_ 
_symmetry_equiv_pos_as_xyz 
  x,y,z 
_cell_length_a                    32.0092338 
_cell_length_b                    31.862332899566372 
_cell_length_c                    31.842145862120812 
_cell_angle_alpha                 89.25412720017677 
_cell_angle_beta                  91.10834151571478 
_cell_angle_gamma                 90.90054050088254 
loop_ 
_atom_site_label 
_atom_site_type_symbol 
_atom_site_fract_x 
_atom_site_fract_y 
_atom_site_fract_z 
_atom_site_charge 
O1          O  0.27322879  0.63980945  0.79218631    -0.79600
O2          O  0.30492356  0.82257110  0.75174250    -0.79600
O3          O  0.28119743  0.69058162  0.66675781    -0.79600
O4          O  0.29543288  0.75273524  0.81873366    -0.79500
O5          O  0.30408127  0.75378130  0.68796226    -0.79600
O6          O  0.26585222  0.70292496  0.85582720    -0.79600
O7          O  0.26648155  0.83291873  0.80869924    -0.79600
O8          O  0.30368081  0.68153950  0.74711290    -0.79600
C9          C  0.30140410  0.64633157  0.76541111     1.10100
C10         C  0.29292882  0.84673752  0.78163098     1.10000
C11         C  0.30184514  0.72408875  0.66009309     1.10200
C12         C  0.29212764  0.73305363  0.85315194     1.10000
O13         O  0.18014846  0.70942888  0.83281023    -0.79600
O14         O  0.24084251  0.78195110  0.68956465    -0.79600
O15         O  0.22850225  0.64347242  0.71611313    -0.79600
O16         O  0.19240077  0.80501144  0.77443383    -0.79500
O17         O  0.23420411  0.81121609  0.72220456    -0.79600
O18         O  0.18845077  0.64906816  0.77134404    -0.79600
O19         O  0.21349223  0.76809020  0.85040711    -0.79500
O20         O  0.20659405  0.72199262  0.68126154    -0.79600
Co21       Co  0.22756051  0.67799465  0.81070369     1.51500
Co22       Co  0.27407780  0.76740078  0.74487148     1.51700
Co23       Co  0.25348729  0.70148194  0.71604955     1.51600
Co24       Co  0.24340146  0.77700938  0.79512271     1.51500
O25         O  0.23033225  0.72379769  0.76534657    -1.41500
C26         C  0.18610421  0.73947930  0.85795235     1.10100
C27         C  0.21451183  0.75880820  0.66823217     1.10200
C28         C  0.20221387  0.62766053  0.74131602     1.10100
C29         C  0.20268424  0.82448795  0.74173577     1.10100
O30         O  0.71122560  0.20215595  0.65364449    -0.79600
O31         O  0.79315103  0.22907778  0.83765111    -0.79600
O32         O  0.85089645  0.23788469  0.69072194    -0.79600
O33         O  0.66298773  0.21998635  0.80447890    -0.79500
O34         O  0.83494226  0.21261410  0.75400774    -0.79600
O35         O  0.68616319  0.19197340  0.74454109    -0.79600
O36         O  0.74224685  0.19937236  0.80516321    -0.79600
O37         O  0.77089301  0.20628444  0.68768561    -0.79600
C38         C  0.75133055  0.20134051  0.65232252     1.10100
C39         C  0.76286594  0.20344721  0.83898058     1.10000
C40         C  0.86076378  0.21573725  0.72247540     1.10200
C41         C  0.65649725  0.19733778  0.77213519     1.10000
O42         O  0.65955027  0.26066946  0.70280391    -0.79600
O43         O  0.85749043  0.27443519  0.80326859    -0.79600
O44         O  0.79134759  0.29181551  0.66048168    -0.79600
O45         O  0.72254036  0.28112766  0.83670301    -0.79500
O46         O  0.78201554  0.31083020  0.81568943    -0.79600
O47         O  0.72370609  0.28226044  0.66186865    -0.79600
O48         O  0.66904316  0.29264895  0.76309520    -0.79500
O49         O  0.84287505  0.30298352  0.74032623    -0.79600
Co50       Co  0.71540264  0.23679792  0.70460324     1.51500
Co51       Co  0.80355464  0.26274757  0.78357227     1.51700
Co52       Co  0.80183540  0.25691601  0.71362334     1.51600
Co53       Co  0.70895862  0.24799314  0.78346428     1.51500
O54         O  0.75085747  0.27011653  0.74740845    -1.41500
C55         C  0.64641846  0.28492582  0.73047503     1.10100
C56         C  0.86893162  0.29673063  0.77215267     1.10200
C57         C  0.75545447  0.29574629  0.64299033     1.10100
C58         C  0.75387956  0.30596094  0.84323096     1.10100
O59         O  0.67364024  0.77328204  0.18952733    -0.79600
O60         O  0.84298368  0.76113409  0.18959639    -0.79600
O61         O  0.72527155  0.83975405  0.21330861    -0.79600
O62         O  0.77945584  0.67568450  0.20046550    -0.79500
O63         O  0.78222151  0.83011117  0.17720316    -0.79600
O64         O  0.72085506  0.69225139  0.16743310    -0.79600
O65         O  0.84329175  0.70792708  0.23612711    -0.79600
O66         O  0.65726937  0.80857422  0.24704789    -0.79600
C67         C  0.64700838  0.79559254  0.21051101     1.10100
C68         C  0.86070932  0.72896454  0.20683148     1.10000
C69         C  0.75091088  0.85237653  0.18583857     1.10200
C70         C  0.75276501  0.66881127  0.17146913     1.10000
O71         O  0.72368002  0.66886133  0.25221702    -0.79600
O72         O  0.78608447  0.84205737  0.26577090    -0.79600
O73         O  0.68005018  0.73621280  0.27705043    -0.79600
O74         O  0.80300495  0.73718364  0.30660573    -0.79500
O75         O  0.84601775  0.78076312  0.27395494    -0.79600
O76         O  0.65278381  0.70103803  0.22278094    -0.79600
O77         O  0.78549640  0.65321274  0.28151337    -0.79500
O78         O  0.73139218  0.81144302  0.29689210    -0.79600
Co79       Co  0.70723403  0.72445341  0.21922802     1.51500
Co80       Co  0.81065635  0.80081901  0.22566326     1.51700
Co81       Co  0.71055122  0.78556053  0.24455771     1.51600
Co82       Co  0.78444900  0.70737788  0.25441201     1.51500
O83         O  0.76306893  0.75678387  0.22866846    -1.41500
C84         C  0.74758541  0.64270406  0.27250221     1.10100
C85         C  0.75854327  0.84076380  0.29433341     1.10200
C86         C  0.64902287  0.71464851  0.25994480     1.10100
C87         C  0.83848892  0.75630090  0.30448874     1.10100
C88         C  0.52577304  0.99542708  0.02138303     0.02900
C89         C  0.53413246  0.02208161  0.98697071     0.02900
C90         C  0.50703952  0.02139426  0.95215064     0.02900
C91         C  0.47167029  0.99481166  0.95164297     0.02900
C92         C  0.46295697  0.96880367  0.98614002     0.02900
C93         C  0.49020251  0.96885921  0.02107272     0.02900
C94         C  0.69970753  0.04397753  0.18947742     0.03700
C95         C  0.66329107  0.03760261  0.16558642    -0.12400
C96         C  0.65400806  0.99843388  0.14797890     0.01200
C97         C  0.68045811  0.96440165  0.15564480    -0.11000
C98         C  0.71803259  0.96915788  0.17835723     0.03700
C99         C  0.72777501  0.00969971  0.19487192    -0.10400
H100        H  0.64348727  0.06404375  0.15820639     0.09300
H101        H  0.67112137  0.93386559  0.14396955     0.06800
H102        H  0.75698609  0.01453550  0.21193777     0.06700
C103        C  0.73044815  0.18024024  0.95792596     0.03700
C104        C  0.74050185  0.19613596  0.99879132    -0.12400
C105        C  0.71441825  0.18777739  0.03397248     0.01200
C106        C  0.68057510  0.16029152  0.02872644    -0.11000
C107        C  0.67082132  0.14253450  0.98975128     0.03700
C108        C  0.69523663  0.15294089  0.95456090    -0.10400
H109        H  0.76827798  0.21541528  0.00305894     0.09300
H110        H  0.66251797  0.15115208  0.05587726     0.06800
H111        H  0.68583332  0.13980107  0.92475400     0.06700
C112        C  0.29631691  0.96702252  0.80061378     0.03700
C113        C  0.26719974  0.99936067  0.80607493    -0.12400
C114        C  0.28057655  0.04112972  0.81459925     0.01200
C115        C  0.32334772  0.04972745  0.81866172    -0.11000
C116        C  0.35168914  0.01656534  0.81974538     0.03700
C117        C  0.33863978  0.97662091  0.80659593    -0.10400
H118        H  0.23410196  0.99162998  0.80588154     0.09300
H119        H  0.33367780  0.08021330  0.82984199     0.06800
H120        H  0.36053035  0.95117020  0.80857011     0.06700
C121        C  0.53755890  0.19008423  0.78337792     0.03700
C122        C  0.53195496  0.14938353  0.79859527    -0.12400
C123        C  0.49432444  0.13714863  0.81633063     0.01200
C124        C  0.45939990  0.16276542  0.81229006    -0.11000
C125        C  0.46331426  0.20416846  0.79699985     0.03700
C126        C  0.50340251  0.21803035  0.78386799    -0.10400
H127        H  0.55890486  0.12959016  0.80327798     0.09300
H128        H  0.43045908  0.15061244  0.82465559     0.06800
H129        H  0.50828667  0.25065429  0.77510495     0.06700
C130        C  0.45537259  0.82978973  0.22938869     0.03700
C131        C  0.44920750  0.85230885  0.19137861    -0.12400
C132        C  0.48233875  0.85947360  0.16391741     0.01200
C133        C  0.52198341  0.84428731  0.17403552    -0.11000
C134        C  0.52934362  0.82152982  0.21105300     0.03700
C135        C  0.49584885  0.81450439  0.23888053    -0.10400
H136        H  0.41858392  0.86320966  0.18193440     0.09300
H137        H  0.54761678  0.85217551  0.15356614     0.06800
H138        H  0.50125618  0.79706734  0.26786161     0.06700
C139        C  0.28538772  0.80486994  0.03584099     0.03700
C140        C  0.30677670  0.84261768  0.02763071    -0.12400
C141        C  0.32699360  0.84902638  0.98920123     0.01200
C142        C  0.32125339  0.81967677  0.95692673    -0.11000
C143        C  0.30116061  0.78088112  0.96428381     0.03700
C144        C  0.28508886  0.77324688  0.00479566    -0.10400
H145        H  0.31147224  0.86482059  0.05282705     0.09300
H146        H  0.33403756  0.82716217  0.92657246     0.06800
H147        H  0.27276389  0.74235998  0.01228366     0.06700
C148        C  0.98960334  0.44835498  0.01305878     0.02900
C149        C  0.02652854  0.44446699  0.99055902     0.02900
C150        C  0.05942343  0.47336409  0.99673472     0.02900
C151        C  0.05572022  0.50572237  0.02571342     0.02900
C152        C  0.01968749  0.50834108  0.04967043     0.02900
C153        C  0.98590858  0.48063902  0.04238784     0.02900
C154        C  0.17862089  0.71694245  0.97351118     0.03700
C155        C  0.16382783  0.67514738  0.97063446    -0.12400
C156        C  0.16343946  0.64873518  0.00622160     0.01200
C157        C  0.18075032  0.66259770  0.04402663    -0.11000
C158        C  0.19478320  0.70385067  0.04796926     0.03700
C159        C  0.19209712  0.73149178  0.01309428    -0.10400
H160        H  0.15240930  0.66261483  0.94110630     0.09300
H161        H  0.17881740  0.64255258  0.07170097     0.06800
H162        H  0.20089343  0.76422279  0.01665670     0.06700
C163        C  0.18398366  0.52734580  0.79714593     0.03700
C164        C  0.17452342  0.52850999  0.83955631    -0.12400
C165        C  0.17617895  0.49234994  0.86461075     0.01200
C166        C  0.19482174  0.45646942  0.84934377    -0.11000
C167        C  0.20817572  0.45550804  0.80771288     0.03700
C168        C  0.20149468  0.49083020  0.78107787    -0.10400
H169        H  0.16152566  0.55681298  0.85225878     0.09300
H170        H  0.19442400  0.42801602  0.86825779     0.06800
H171        H  0.20805004  0.48914476  0.74790764     0.06700
C172        C  0.97002943  0.67906039  0.21719076     0.03700
C173        C  0.97559277  0.65529731  0.18138735    -0.12400
C174        C  0.01367712  0.63563735  0.17475422     0.01200
C175        C  0.04787577  0.64365084  0.20181392    -0.11000
C176        C  0.04375715  0.66864721  0.23736832     0.03700
C177        C  0.00346028  0.68264050  0.24687265    -0.10400
H178        H  0.94903683  0.64935231  0.16058415     0.09300
H179        H  0.07735980  0.62947207  0.19510768     0.06800
H180        H  0.99880529  0.69721693  0.27683220     0.06700
C181        C  0.78345099  0.55141467  0.16199590     0.03700
C182        C  0.77213487  0.51815686  0.18972430    -0.12400
C183        C  0.78899017  0.47764772  0.18680554     0.01200
C184        C  0.81938072  0.47133625  0.15688144    -0.11000
C185        C  0.83382836  0.50466906  0.13139968     0.03700
C186        C  0.81450462  0.54415315  0.13263679    -0.10400
H187        H  0.75192700  0.52448060  0.21532761     0.09300
H188        H  0.83265537  0.44050472  0.15376648     0.06800
H189        H  0.82671918  0.57025164  0.11422321     0.06700
C190        C  0.05916898  0.27541107  0.81176868     0.03700
C191        C  0.06378410  0.30870698  0.84029529    -0.12400
C192        C  0.02978695  0.33420806  0.84946305     0.01200
C193        C  0.99157772  0.32841363  0.82790299    -0.11000
C194        C  0.98569148  0.29510722  0.80038732     0.03700
C195        C  0.01908303  0.26763032  0.79401677    -0.10400
H196        H  0.09317528  0.31489182  0.85633929     0.09300
H197        H  0.96494945  0.34715406  0.83578827     0.06800
H198        H  0.01373375  0.23976508  0.77563636     0.06700
C199        C  0.79856666  0.30247451  0.03742293     0.03700
C200        C  0.77102136  0.29929691  0.00178455    -0.12400
C201        C  0.78333112  0.31384769  0.96130093     0.01200
C202        C  0.82311698  0.33302892  0.95797729    -0.11000
C203        C  0.84949114  0.33759494  0.99331878     0.03700
C204        C  0.83737241  0.32174500  0.03227658    -0.10400
H205        H  0.74014865  0.28555119  0.00553409     0.09300
H206        H  0.83448879  0.34406144  0.92800189     0.06800
H207        H  0.85730610  0.32758426  0.05947583     0.06700
C208        C  0.52635058  0.48911984  0.53951747     0.02900
C209        C  0.49573396  0.51997868  0.54367231     0.02900
C210        C  0.49229112  0.55212479  0.51339224     0.02900
C211        C  0.51899607  0.55382865  0.47912619     0.02900
C212        C  0.55024216  0.52374098  0.47576882     0.02900
C213        C  0.55457528  0.49152788  0.50609918     0.02900
C214        C  0.45973036  0.28379321  0.66796774     0.03700
C215        C  0.49619739  0.26767201  0.68776142    -0.12400
C216        C  0.53369382  0.29211723  0.68901193     0.01200
C217        C  0.53510198  0.33069231  0.66804212    -0.11000
C218        C  0.50047812  0.34550170  0.64581638     0.03700
C219        C  0.46285053  0.32249539  0.64635367    -0.10400
H220        H  0.49537695  0.23692262  0.70233875     0.09300
H221        H  0.56450396  0.34790774  0.66617666     0.06800
H222        H  0.43567101  0.33520769  0.63014171     0.06700
C223        C  0.30639289  0.70516559  0.54417018     0.03700
C224        C  0.34335683  0.68276953  0.54215065    -0.12400
C225        C  0.35292536  0.66108365  0.50598568     0.01200
C226        C  0.32637205  0.66286257  0.47076184    -0.11000
C227        C  0.28950202  0.68611637  0.47151073     0.03700
C228        C  0.27920641  0.70623545  0.50893136    -0.10400
H229        H  0.36321539  0.67915501  0.56984328     0.09300
H230        H  0.33528734  0.64595758  0.44330441     0.06800
H231        H  0.24994931  0.72266943  0.51066727     0.06700
C232        C  0.68064384  0.53928788  0.26931349     0.03700
C233        C  0.67404895  0.50301064  0.24397407    -0.12400
C234        C  0.65214894  0.46682423  0.25961078     0.01200
C235        C  0.63396465  0.46958853  0.29917429    -0.11000
C236        C  0.63779460  0.50632139  0.32276309     0.03700
C237        C  0.66149069  0.54032758  0.30807771    -0.10400
H238        H  0.68662246  0.50218746  0.21277522     0.09300
H239        H  0.61765546  0.44297417  0.31279436     0.06800
H240        H  0.66355311  0.56883430  0.32626758     0.06700
C241        C  0.53052125  0.69573509  0.27983883     0.03700
C242        C  0.52950991  0.67514694  0.31868137    -0.12400
C243        C  0.49183140  0.66438659  0.33761786     0.01200
C244        C  0.45369922  0.67399417  0.31717080    -0.11000
C245        C  0.45292606  0.69448955  0.27745218     0.03700
C246        C  0.49200823  0.70490541  0.25901811    -0.10400
H247        H  0.55835115  0.66497654  0.33357263     0.09300
H248        H  0.42517582  0.66501717  0.33264563     0.06800
H249        H  0.49248451  0.72020368  0.22844588     0.06700
C250        C  0.32459309  0.53533679  0.72328555     0.03700
C251        C  0.30567569  0.49536440  0.72883504    -0.12400
C252        C  0.31457172  0.46167542  0.70236401     0.01200
C253        C  0.34423529  0.46752583  0.67120281    -0.11000
C254        C  0.36479887  0.50646518  0.66576310     0.03700
C255        C  0.35421699  0.54043330  0.69130867    -0.10400
H256        H  0.28406483  0.49028909  0.75415398     0.09300
H257        H  0.35332687  0.44075364  0.65306589     0.06800
H258        H  0.36896228  0.57061621  0.68565506     0.06700
C259        C  0.68023168  0.28814275  0.45722795     0.03700
C260        C  0.66990464  0.33016621  0.44935323    -0.12400
C261        C  0.67387993  0.36028488  0.48164162     0.01200
C262        C  0.69599021  0.35016084  0.51915822    -0.11000
C263        C  0.70630824  0.30865829  0.52868202     0.03700
C264        C  0.69494735  0.27769516  0.49851399    -0.10400
H265        H  0.65284476  0.33794811  0.42064455     0.09300
H266        H  0.69890237  0.37295056  0.54403211     0.06800
H267        H  0.69629970  0.24488286  0.50762005     0.06700
C268        C  0.01180694  0.98174678  0.54379146     0.02900
C269        C  0.00865709  0.95170412  0.51201354     0.02900
C270        C  0.97903083  0.95671599  0.47970771     0.02900
C271        C  0.95184670  0.99065079  0.48042477     0.02900
C272        C  0.95570799  0.02126773  0.51136635     0.02900
C273        C  0.98588472  0.01679745  0.54325246     0.02900
C274        C  0.97651769  0.20471129  0.69467331     0.03700
C275        C  0.97789597  0.16512791  0.67675542    -0.12400
C276        C  0.01403307  0.15165705  0.65746019     0.01200
C277        C  0.05058256  0.17646024  0.65905091    -0.11000
C278        C  0.05073959  0.21651124  0.67711528     0.03700
C279        C  0.01276027  0.23097210  0.69347570    -0.10400
H280        H  0.94946628  0.14636571  0.67406581     0.09300
H281        H  0.07859711  0.16389685  0.64599444     0.06800
H282        H  0.01146073  0.26259168  0.70537773     0.06700
C283        C  0.20964598  0.01179271  0.69187000     0.03700
C284        C  0.17414315  0.01388653  0.66568187    -0.12400
C285        C  0.15075121  0.97761735  0.65677140     0.01200
C286        C  0.16210828  0.93908531  0.67419952    -0.11000
C287        C  0.19739918  0.93632793  0.70011585     0.03700
C288        C  0.22172763  0.97257402  0.70825432    -0.10400
H289        H  0.16335875  0.04385525  0.65363658     0.09300
H290        H  0.14434041  0.91097159  0.66614211     0.06800
H291        H  0.24969346  0.97033170  0.72752146     0.06700
C292        C  0.20416054  0.81117225  0.55895650     0.03700
C293        C  0.16471582  0.82935551  0.55459742    -0.12400
C294        C  0.15045906  0.84440641  0.51532177     0.01200
C295        C  0.17543332  0.83961227  0.47999888    -0.11000
C296        C  0.21564302  0.82304511  0.48369914     0.03700
C297        C  0.22992289  0.80904556  0.52356122    -0.10400
H298        H  0.14615071  0.83363378  0.58225536     0.09300
H299        H  0.16302917  0.84832368  0.44930849     0.06800
H300        H  0.26081391  0.79589234  0.52693131     0.06700
C301        C  0.78970801  0.19957039  0.53502293     0.03700
C302        C  0.81846885  0.16719945  0.53490268    -0.12400
C303        C  0.84114393  0.15813687  0.49896995     0.01200
C304        C  0.83500081  0.18195107  0.46180153    -0.11000
C305        C  0.80683870  0.21551833  0.46047038     0.03700
C306        C  0.78554221  0.22457859  0.49798815    -0.10400
H307        H  0.82286308  0.14824118  0.56300941     0.09300
H308        H  0.85208288  0.17375230  0.43425745     0.06800
H309        H  0.76665568  0.25189638  0.49843281     0.06700
C310        C  0.77793249  0.03124782  0.30853596     0.03700
C311        C  0.75443472  0.99400706  0.30066323    -0.12400
C312        C  0.76599294  0.95545491  0.31997455     0.01200
C313        C  0.79958741  0.95565596  0.34874731    -0.11000
C314        C  0.82111937  0.99279211  0.35806014     0.03700
C315        C  0.81066623  0.03007860  0.33778041    -0.10400
H316        H  0.72783777  0.99479885  0.27923207     0.09300
H317        H  0.81061909  0.92700941  0.36325920     0.06800
H318        H  0.82691044  0.05883889  0.34656649     0.06700
C319        C  0.01137245  0.80856215  0.28567530     0.03700
C320        C  0.97574141  0.78158945  0.28097917    -0.12400
C321        C  0.93995794  0.78449670  0.30672159     0.01200
C322        C  0.93794210  0.81872326  0.33326101    -0.11000
C323        C  0.97247167  0.84597589  0.33876627     0.03700
C324        C  0.00865490  0.84102013  0.31494773    -0.10400
H325        H  0.97654311  0.75736119  0.25820324     0.09300
H326        H  0.91134911  0.82116636  0.35360310     0.06800
H327        H  0.03547521  0.86080484  0.32199283     0.06700
O328        O  0.26716438  0.15024814  0.70529818    -0.79600
O329        O  0.24880683  0.32378494  0.69200108    -0.83800
O330        O  0.19471438  0.21200267  0.67997015    -0.79600
O331        O  0.34342331  0.26057499  0.71477436    -0.79500
O332        O  0.17524565  0.27329107  0.70496622    -0.79600
O333        O  0.34564612  0.19244416  0.72336553    -0.79600
O334        O  0.30817699  0.33174200  0.72653180    -0.79600
O335        O  0.20187820  0.13869821  0.72613428    -0.79600
C336        C  0.23366180  0.12676699  0.70645610     1.10100
C337        C  0.28183666  0.34535893  0.69992256     1.10000
C338        C  0.16835803  0.24150288  0.68136922     1.10200
C339        C  0.36187418  0.22639417  0.70960987     1.10000
O340        O  0.31468434  0.22724376  0.79961121    -0.79600
O341        O  0.20635587  0.25732725  0.79051010    -0.79600
O342        O  0.24167171  0.17351752  0.79260332    -0.79600
O343        O  0.26434641  0.31325296  0.79705897    -0.79500
O344        O  0.20686645  0.33534225  0.76140728    -0.79600
O345        O  0.30092981  0.14060582  0.78352904    -0.79600
O346        O  0.35075284  0.28654957  0.79352989    -0.79500
O347        O  0.16806688  0.21024961  0.76135879    -0.79600
Co348      Co  0.28956332  0.19141720  0.75118482     1.51500
Co349      Co  0.22776526  0.28744001  0.73945219     1.51700
Co350      Co  0.22143405  0.19426418  0.73381411     1.51600
Co351      Co  0.30258111  0.27809456  0.75691553     1.51500
O352        O  0.26142743  0.24278194  0.72430353    -1.41500
C353        C  0.35017184  0.24725785  0.80262854     1.10100
C354        C  0.17139312  0.23912370  0.78766844     1.10200
C355        C  0.26604670  0.14268209  0.80194183     1.10100
C356        C  0.23525213  0.34125252  0.78934645     1.10100
O357        O  0.74657001  0.15760240  0.29834596    -0.79600
O358        O  0.73716802  0.35746050  0.21422255    -0.79600
O359        O  0.80892519  0.25385991  0.18566187    -0.79600
O360        O  0.77953616  0.28788569  0.34109748    -0.79500
O361        O  0.75830054  0.29527021  0.16252027    -0.79600
O362        O  0.78699649  0.22863969  0.31013314    -0.79600
O363        O  0.78114890  0.34450537  0.26738657    -0.79600
O364        O  0.79632769  0.17519530  0.25294853    -0.79600
C365        C  0.77900339  0.14786396  0.27853729     1.10100
C366        C  0.76968481  0.36703697  0.23584563     1.10000
C367        C  0.79363606  0.27870888  0.15766924     1.10200
C368        C  0.79173851  0.25063675  0.34224656     1.10000
O369        O  0.70079135  0.22170751  0.33309454    -0.79600
O370        O  0.68252377  0.25099183  0.17207017    -0.79600
O371        O  0.73500734  0.17214337  0.20880766    -0.79600
O372        O  0.69372134  0.35257814  0.27900340    -0.79500
O373        O  0.65800054  0.31903399  0.22923397    -0.79600
O374        O  0.68435078  0.18666119  0.25018135    -0.79600
O375        O  0.69485216  0.29059077  0.34197120    -0.79500
O376        O  0.74080389  0.21586060  0.16427193    -0.79600
Co377      Co  0.73349231  0.21307118  0.28071021     1.51500
Co378      Co  0.70952534  0.30196272  0.19976903     1.51700
Co379      Co  0.76629983  0.22526262  0.22146694     1.51600
Co380      Co  0.73777929  0.31439812  0.30208941     1.51500
O381        O  0.73059537  0.26904962  0.25367088    -1.41500
C382        C  0.68796976  0.25286466  0.35392224     1.10100
C383        C  0.70557286  0.22753067  0.14976650     1.10200
C384        C  0.69995834  0.16175870  0.22366525     1.10100
C385        C  0.66268365  0.35020695  0.25374184     1.10100
O386        O  0.33205834  0.73053967  0.21258309    -0.79600
O387        O  0.15339169  0.72429925  0.30194268    -0.79600
O388        O  0.29807060  0.73860301  0.35293038    -0.79600
O389        O  0.18173904  0.73393781  0.17096283    -0.79500
O390        O  0.23212218  0.71563322  0.34155568    -0.79600
O391        O  0.24522027  0.71202883  0.19334585    -0.79600
O392        O  0.18999951  0.71048632  0.24950935    -0.79600
O393        O  0.30006739  0.71712574  0.27175833    -0.79600
C394        C  0.33385757  0.71579748  0.25002236     1.10100
C395        C  0.15622388  0.70489369  0.26859896     1.10000
C396        C  0.26801012  0.71348407  0.36106838     1.10200
C397        C  0.21511501  0.71382116  0.16472702     1.10000
O398        O  0.27850102  0.78602108  0.16596708    -0.79600
O399        O  0.20493240  0.79080286  0.36137753    -0.79600
O400        O  0.33417683  0.79607822  0.29705544    -0.79600
O401        O  0.14563090  0.78874292  0.23002936    -0.79500
O402        O  0.15378928  0.80015213  0.29869039    -0.79600
O403        O  0.31679461  0.81092249  0.23270031    -0.79600
O404        O  0.21554111  0.81030889  0.17378980    -0.79500
O405        O  0.26540692  0.81606060  0.34317249    -0.79600
Co406      Co  0.28078952  0.76077385  0.22173052     1.51500
Co407      Co  0.20211591  0.76283259  0.30780461     1.51700
Co408      Co  0.27849563  0.76721829  0.30515222     1.51600
Co409      Co  0.20259416  0.76310409  0.21602745     1.51500
O410        O  0.23834532  0.78722852  0.25933400    -1.41500
C411        C  0.24809834  0.80628297  0.15123516     1.10100
C412        C  0.23567369  0.81427130  0.36910990     1.10200
C413        C  0.34233408  0.81446872  0.26286379     1.10100
C414        C  0.13181040  0.80246545  0.26497568     1.10100
C415        C  0.05273776  0.79768909  0.26551948    -0.15800
C416        C  0.08903005  0.82077652  0.26878525    -0.31000
H417        H  0.05444502  0.76703040  0.25128691     0.13200
H418        H  0.08868232  0.85114101  0.28355343     0.13800
C419        C  0.76593806  0.07274192  0.29107096    -0.15800
C420        C  0.79393399  0.10451770  0.28386046    -0.31000
H421        H  0.73267393  0.07861343  0.28809063     0.13200
H422        H  0.82727067  0.09879287  0.28349655     0.13800
C423        C  0.79750228  0.24066881  0.42059413    -0.15800
C424        C  0.81061040  0.23138762  0.38130121    -0.31000
H425        H  0.77562960  0.26620845  0.42327108     0.13200
H426        H  0.83011372  0.20443340  0.37675142     0.13800
C427        C  0.24018471  0.81516703  0.44525322    -0.15800
C428        C  0.23558015  0.83731693  0.40891946    -0.31000
H429        H  0.25770506  0.78630317  0.44491795     0.13200
H430        H  0.21908530  0.86682066  0.40868580     0.13800
C431        C  0.22984549  0.05088253  0.70724418    -0.15800
C432        C  0.23100187  0.08670081  0.68454300    -0.31000
H433        H  0.23913637  0.05171976  0.74010391     0.13200
H434        H  0.22275174  0.08705042  0.65131753     0.13800
C435        C  0.12646117  0.23363553  0.66179875    -0.15800
C436        C  0.09076753  0.24157244  0.68252671    -0.31000
H437        H  0.12557843  0.21245288  0.63544622     0.13200
H438        H  0.09230475  0.26349455  0.70835103     0.13800
C439        C  0.99319426  0.94185334  0.40491991    -0.12800
C440        C  0.97791257  0.92812906  0.44377495     0.09400
C441        C  0.96087170  0.88777578  0.44825182    -0.12800
C442        C  0.95881776  0.86124324  0.41390805    -0.12800
C443        C  0.97345156  0.87496264  0.37454762     0.09400
C444        C  0.99086707  0.91545751  0.37039896    -0.12800
H445        H  0.00671651  0.97304774  0.40141766     0.13400
H446        H  0.94922222  0.87695309  0.47828251     0.13400
H447        H  0.94643516  0.82971883  0.41836597     0.13400
H448        H  0.00248334  0.92666131  0.34050013     0.13400
C449        C  0.92329973  0.01590616  0.41253424    -0.12800
C450        C  0.91799969  0.99289945  0.44966173     0.09400
C451        C  0.88109252  0.97051319  0.45737672    -0.12800
C452        C  0.84922523  0.97069337  0.42745738    -0.12800
C453        C  0.85459581  0.99286002  0.38958923     0.09400
C454        C  0.89169982  0.01560901  0.38226118    -0.12800
H455        H  0.95209171  0.03318949  0.40682942     0.13400
H456        H  0.87722411  0.95288313  0.48640854     0.13400
H457        H  0.82042764  0.95370154  0.43387649     0.13400
H458        H  0.89640258  0.03259422  0.35300568     0.13400
C459        C  0.93813078  0.09333893  0.48615037    -0.12800
C460        C  0.92779988  0.05750924  0.50997892     0.09400
C461        C  0.88892616  0.05406280  0.52887187    -0.12800
C462        C  0.86034801  0.08620614  0.52400105    -0.12800
C463        C  0.87062285  0.12283360  0.50095872     0.09400
C464        C  0.90977970  0.12603562  0.48187350    -0.12800
H465        H  0.96793642  0.09572480  0.47069659     0.13400
H466        H  0.88038111  0.02597266  0.54643424     0.13400
H467        H  0.83000297  0.08215646  0.53805445     0.13400
H468        H  0.91867610  0.15392882  0.46422232     0.13400
C469        C  0.01696342  0.08599765  0.56077803    -0.12800
C470        C  0.99368841  0.05068723  0.57333558     0.09400
C471        C  0.98039891  0.04650412  0.61478849    -0.12800
C472        C  0.98913153  0.07842033  0.64328287    -0.12800
C473        C  0.01122105  0.11466806  0.63039282     0.09400
C474        C  0.02566010  0.11787613  0.58911929    -0.12800
H475        H  0.02803638  0.08891429  0.52892363     0.13400
H476        H  0.96308559  0.01878512  0.62481383     0.13400
H477        H  0.97785093  0.07533102  0.67504012     0.13400
H478        H  0.04211888  0.14580708  0.57827570     0.13400
C479        C  0.04298458  0.96041830  0.61212449    -0.12800
C480        C  0.04701734  0.98060411  0.57324474     0.09400
C481        C  0.08441631  0.00050745  0.56196364    -0.12800
C482        C  0.11824036  0.00002965  0.58963839    -0.12800
C483        C  0.11457860  0.97966013  0.62862722     0.09400
C484        C  0.07686565  0.95991939  0.63991399    -0.12800
H485        H  0.01380830  0.94523227  0.62071846     0.13400
H486        H  0.08726106  0.01614534  0.53170722     0.13400
H487        H  0.14740114  0.01486168  0.58043330     0.13400
H488        H  0.07375308  0.94427321  0.67012400     0.13400
C489        C  0.04172769  0.88456818  0.53523363    -0.12800
C490        C  0.04127226  0.91999675  0.50876771     0.09400
C491        C  0.07486696  0.92873974  0.48260772    -0.12800
C492        C  0.10969293  0.90340707  0.48411621    -0.12800
C493        C  0.11128603  0.86836728  0.51139605     0.09400
C494        C  0.07652699  0.85862439  0.53636483    -0.12800
H495        H  0.01586144  0.87792608  0.55585034     0.13400
H496        H  0.07499550  0.95656787  0.46267692     0.13400
H497        H  0.13618434  0.91259370  0.46529255     0.13400
H498        H  0.07660071  0.83160392  0.55732319     0.13400
C499        C  0.65951690  0.25400275  0.43159966    -0.15800
C500        C  0.66049178  0.24208822  0.39034095    -0.31000
H501        H  0.63863638  0.23468806  0.45057870     0.13200
H502        H  0.64072096  0.21481876  0.38362836     0.13800
C503        C  0.29836783  0.41883689  0.71231510    -0.15800
C504        C  0.28851835  0.38870177  0.68389343    -0.31000
H505        H  0.29668947  0.41091873  0.74554887     0.13200
H506        H  0.28695035  0.39560195  0.65043495     0.13800
C507        C  0.41238922  0.70591599  0.25469636    -0.15800
C508        C  0.37322070  0.69860646  0.26955322    -0.31000
H509        H  0.41507793  0.72306883  0.22513245     0.13200
H510        H  0.36921324  0.68254498  0.29935675     0.13800
C511        C  0.65389785  0.42504149  0.23755752    -0.15800
C512        C  0.63619212  0.38819445  0.25134477    -0.31000
H513        H  0.67696063  0.42264274  0.21333870     0.13200
H514        H  0.61080235  0.38847909  0.27329607     0.13800
C515        C  0.26333159  0.69362970  0.43321172    -0.15800
C516        C  0.27487879  0.68292151  0.39453122    -0.31000
H517        H  0.23831606  0.71610018  0.43578877     0.13200
H518        H  0.29996545  0.66139427  0.38944259     0.13800
C519        C  0.40474383  0.22916359  0.69168447    -0.15800
C520        C  0.41658042  0.26537064  0.67212739    -0.31000
H521        H  0.42751635  0.20571942  0.70079132     0.13200
H522        H  0.39168412  0.28635848  0.66218994     0.13800
C523        C  0.41823762  0.56544520  0.49634918    -0.12800
C524        C  0.45637557  0.57988408  0.51330494     0.09400
C525        C  0.46129394  0.62136938  0.52632100    -0.12800
C526        C  0.42770336  0.64836720  0.52296206    -0.12800
C527        C  0.38921049  0.63384849  0.50651508     0.09400
C528        C  0.38467993  0.59229667  0.49305698    -0.12800
H529        H  0.41475790  0.53356182  0.48526185     0.13400
H530        H  0.49111301  0.63274877  0.53857591     0.13400
H531        H  0.43165033  0.68050567  0.53316666     0.13400
H532        H  0.35505375  0.58047206  0.48073570     0.13400
C533        C  0.46661549  0.53787772  0.61347515    -0.12800
C534        C  0.46327024  0.51552591  0.57598839     0.09400
C535        C  0.42764930  0.49077243  0.56768710    -0.12800
C536        C  0.39534630  0.48868928  0.59632875    -0.12800
C537        C  0.39841241  0.51069997  0.63432979     0.09400
C538        C  0.43455015  0.53524310  0.64264391    -0.12800
H539        H  0.49398903  0.55727951  0.62004751     0.13400
H540        H  0.42456006  0.47374563  0.53854126     0.13400
H541        H  0.36776090  0.47013033  0.58843241     0.13400
H542        H  0.43833315  0.55194531  0.67188626     0.13400
C543        C  0.47928184  0.57401007  0.41395887    -0.12800
C544        C  0.51036604  0.58368777  0.44412132     0.09400
C545        C  0.53198276  0.62205981  0.44180195    -0.12800
C546        C  0.52366493  0.64990365  0.40861886    -0.12800
C547        C  0.49384122  0.63951016  0.37714563     0.09400
C548        C  0.47097800  0.60177747  0.38071066    -0.12800
H549        H  0.46209709  0.54451257  0.41579613     0.13400
H550        H  0.55555549  0.63010477  0.46532561     0.13400
H551        H  0.54156469  0.67897419  0.40665066     0.13400
H552        H  0.44832353  0.59276506  0.35665828     0.13400
C553        C  0.55349614  0.49980324  0.40287410    -0.12800
C554        C  0.57274674  0.52076102  0.43652043     0.09400
C555        C  0.61362829  0.53620424  0.43362923    -0.12800
C556        C  0.63540475  0.53054671  0.39685397    -0.12800
C557        C  0.61605697  0.50995297  0.36264704     0.09400
C558        C  0.57492132  0.49467336  0.36594850    -0.12800
H559        H  0.52192236  0.48739366  0.40539639     0.13400
H560        H  0.62867206  0.55194286  0.45994584     0.13400
H561        H  0.66734401  0.54206673  0.39520866     0.13400
H562        H  0.55912795  0.47936426  0.33981214     0.13400
C563        C  0.57382952  0.42189448  0.47765374    -0.12800
C564        C  0.58559939  0.45816324  0.49953716     0.09400
C565        C  0.62771180  0.46470184  0.51088205    -0.12800
C566        C  0.65739425  0.43436121  0.50214209    -0.12800
C567        C  0.64536469  0.39679233  0.48212741     0.09400
C568        C  0.60324445  0.39135464  0.46937347    -0.12800
H569        H  0.54175869  0.41714468  0.46715336     0.13400
H570        H  0.63751981  0.49329109  0.52651290     0.13400
H571        H  0.68954837  0.43972833  0.51208877     0.13400
H572        H  0.59246675  0.36261861  0.45466692     0.13400
C573        C  0.53746049  0.45203077  0.60771835    -0.12800
C574        C  0.52337731  0.45123813  0.56592545     0.09400
C575        C  0.49986322  0.41691238  0.55104635    -0.12800
C576        C  0.49110348  0.38305847  0.57755328    -0.12800
C577        C  0.50551906  0.38335499  0.61938001     0.09400
C578        C  0.52856807  0.41821544  0.63438348    -0.12800
H579        H  0.55438003  0.47915282  0.61977605     0.13400
H580        H  0.48736164  0.41692000  0.51920173     0.13400
H581        H  0.47374692  0.35635832  0.56518789     0.13400
H582        H  0.53968698  0.41919870  0.66670282     0.13400
C583        C  0.78522724  0.29105682  0.08097980    -0.15800
C584        C  0.81144408  0.28397625  0.11497025    -0.31000
H585        H  0.75169203  0.29029295  0.08558928     0.13200
H586        H  0.84484501  0.28079899  0.11125774     0.13800
C587        C  0.09516142  0.24901822  0.79868846    -0.15800
C588        C  0.13547863  0.25611588  0.81043621    -0.31000
H589        H  0.08865646  0.22528513  0.77516483     0.13200
H590        H  0.14350158  0.27980218  0.83335046     0.13800
C591        C  0.77249993  0.44179403  0.21303269    -0.15800
C592        C  0.79312928  0.40587798  0.22296577    -0.31000
H593        H  0.74067990  0.44431342  0.22302540     0.13200
H594        H  0.82636787  0.40356923  0.21754696     0.13800
C595        C  0.12086232  0.68089230  0.24953206    -0.15800
C596        C  0.08106131  0.68248801  0.26333014    -0.31000
H597        H  0.12761016  0.66649382  0.21990739     0.13200
H598        H  0.07527639  0.69916228  0.29215779     0.13800
C599        C  0.22063535  0.41538704  0.78938631    -0.15800
C600        C  0.23401406  0.38134517  0.81150030    -0.31000
H601        H  0.21575841  0.41278876  0.75559782     0.13200
H602        H  0.24293439  0.38286700  0.84449022     0.13800
C603        C  0.20427883  0.71987286  0.09014522    -0.15800
C604        C  0.21919252  0.69642319  0.12274111    -0.31000
H605        H  0.19455539  0.75184753  0.09560325     0.13200
H606        H  0.23211508  0.66549754  0.11856249     0.13800
C607        C  0.13026046  0.45926904  0.96864707    -0.12800
C608        C  0.09102770  0.47774898  0.96439968     0.09400
C609        C  0.08082465  0.50213500  0.92919242    -0.12800
C610        C  0.10919794  0.50750624  0.89763239    -0.12800
C611        C  0.14884775  0.48928159  0.90106805     0.09400
C612        C  0.15933727  0.46509335  0.93688297    -0.12800
H613        H  0.13810588  0.44053264  0.99621406     0.13400
H614        H  0.05043019  0.51649632  0.92598745     0.13400
H615        H  0.09928425  0.52483495  0.86981563     0.13400
H616        H  0.18958505  0.45052315  0.94001001     0.13400
C617        C  0.12561059  0.54031422  0.03629155    -0.12800
C618        C  0.08395520  0.54243275  0.02249625     0.09400
C619        C  0.06978453  0.57776155  0.00019143    -0.12800
C620        C  0.09674482  0.61131538  0.99248880    -0.12800
C621        C  0.13829012  0.60991725  0.00696768     0.09400
C622        C  0.15274848  0.57404585  0.02861484    -0.12800
H623        H  0.13695009  0.51260639  0.05263906     0.13400
H624        H  0.03786035  0.57903152  0.98836487     0.13400
H625        H  0.08470065  0.63901706  0.97665509     0.13400
H626        H  0.18470821  0.57262829  0.04029318     0.13400
C627        C  0.99535946  0.57784808  0.07317465    -0.12800
C628        C  0.01750572  0.54107210  0.08148568     0.09400
C629        C  0.03986414  0.53607769  0.11925295    -0.12800
C630        C  0.03920960  0.56725975  0.14926771    -0.12800
C631        C  0.01680544  0.60425189  0.14144319     0.09400
C632        C  0.99530606  0.60950505  0.10286681    -0.12800
H633        H  0.97863421  0.58212615  0.04357734     0.13400
H634        H  0.05737613  0.50779128  0.12558046     0.13400
H635        H  0.05534086  0.56183836  0.17899158     0.13400
H636        H  0.97841565  0.63796027  0.09568309     0.13400
C637        C  0.90584250  0.47698639  0.12687431    -0.12800
C638        C  0.87250381  0.49891301  0.10778368     0.09400
C639        C  0.87701709  0.51544904  0.06704542    -0.12800
C640        C  0.91403679  0.50939968  0.04559344    -0.12800
C641        C  0.94654257  0.48644615  0.06452582     0.09400
C642        C  0.94247584  0.47062613  0.10529884    -0.12800
H643        H  0.90375576  0.46506355  0.15878141     0.13400
H644        H  0.85193636  0.53265849  0.05180580     0.13400
H645        H  0.91746913  0.52264368  0.01433735     0.13400
H646        H  0.96782157  0.45370280  0.12045243     0.13400
C647        C  0.95696758  0.37797890  0.02109873    -0.12800
C648        C  0.95481169  0.41890018  0.00501812     0.09400
C649        C  0.92053427  0.43119397  0.98008939    -0.12800
C650        C  0.88706612  0.40346915  0.97369019    -0.12800
C651        C  0.88805159  0.36308227  0.99170558     0.09400
C652        C  0.92383072  0.35006391  0.01427957    -0.12800
H653        H  0.98391836  0.36805059  0.03955523     0.13400
H654        H  0.91939414  0.46245027  0.96641830     0.13400
H655        H  0.85962659  0.41426344  0.95657058     0.13400
H656        H  0.92529185  0.31887751  0.02813806     0.13400
C657        C  0.00884803  0.42793909  0.91647947    -0.12800
C658        C  0.02770265  0.41582646  0.95466604     0.09400
C659        C  0.04967916  0.37832908  0.95774742    -0.12800
C660        C  0.05171589  0.35233797  0.92295860    -0.12800
C661        C  0.03226560  0.36400595  0.88462206     0.09400
C662        C  0.01145515  0.40243981  0.88157210    -0.12800
H663        H  0.99244217  0.45736096  0.91374268     0.13400
H664        H  0.06472344  0.36908891  0.98711844     0.13400
H665        H  0.06733538  0.32256590  0.92642744     0.13400
H666        H  0.99670017  0.41248360  0.85232908     0.13400
C667        C  0.27198836  0.79464143  0.07952966    -0.15800
C668        C  0.25169361  0.82024473  0.10636164    -0.31000
H669        H  0.28102855  0.76370030  0.09085621     0.13200
H670        H  0.23921937  0.85009782  0.09572193     0.13800
C671        C  0.41917040  0.81798911  0.25680227    -0.15800
C672        C  0.38197935  0.83766798  0.25507600    -0.31000
H673        H  0.42158965  0.78916312  0.27513626     0.13200
H674        H  0.37909402  0.86668879  0.23719058     0.13800
C675        C  0.42657265  0.23324635  0.79563072    -0.15800
C676        C  0.38886700  0.22386034  0.81271187    -0.31000
H677        H  0.42984349  0.26221241  0.77751850     0.13200
H678        H  0.38401803  0.19532758  0.83074649     0.13800
C679        C  0.25132160  0.11267842  0.83478967    -0.15800
C680        C  0.25092257  0.07010610  0.83425407    -0.31000
H681        H  0.22892703  0.12615726  0.85581418     0.13200
H682        H  0.22889819  0.05469856  0.85522270     0.13800
C683        C  0.72365202  0.20454316  0.07728397    -0.15800
C684        C  0.69384470  0.21413197  0.10602256    -0.31000
H685        H  0.75640762  0.20843048  0.08602570     0.13200
H686        H  0.66099707  0.21330149  0.09692221     0.13800
C687        C  0.71080229  0.08764045  0.20375589    -0.15800
C688        C  0.68334859  0.11871592  0.21344829    -0.31000
H689        H  0.74406393  0.09474302  0.20559842     0.13200
H690        H  0.65006101  0.11212896  0.21515260     0.13800
C691        C  0.40750099  0.02610478  0.92299099    -0.12800
C692        C  0.44089948  0.99933932  0.91733772     0.09400
C693        C  0.44846658  0.98278382  0.87778958    -0.12800
C694        C  0.42227331  0.99284962  0.84388251    -0.12800
C695        C  0.38721064  0.01800442  0.84980896     0.09400
C696        C  0.38074271  0.03528514  0.88959832    -0.12800
H697        H  0.40224482  0.03983219  0.95336055     0.13400
H698        H  0.47502684  0.96282747  0.87316870     0.13400
H699        H  0.42802755  0.97918726  0.81361221     0.13400
H700        H  0.35352449  0.05376040  0.89586826     0.13400
C701        C  0.43041766  0.90134627  0.96513866    -0.12800
C702        C  0.42661122  0.93998936  0.98466758     0.09400
C703        C  0.38904828  0.95045014  0.00351900    -0.12800
C704        C  0.35557634  0.92173440  0.00356804    -0.12800
C705        C  0.35962752  0.88222656  0.98499076     0.09400
C706        C  0.39737115  0.87258732  0.96551817    -0.12800
H707        H  0.45947373  0.89303640  0.95069695     0.13400
H708        H  0.38596780  0.98049568  0.01858431     0.13400
H709        H  0.32689865  0.93010108  0.01863375     0.13400
H710        H  0.40210261  0.84207654  0.95197719     0.13400
C711        C  0.56605933  0.08988647  0.01000469    -0.12800
C712        C  0.56958886  0.05246168  0.98797728     0.09400
C713        C  0.60549664  0.04531072  0.96476630    -0.12800
C714        C  0.63812866  0.07501505  0.96437969    -0.12800
C715        C  0.63501152  0.11245363  0.98688698     0.09400
C716        C  0.59834770  0.11974219  0.00928750    -0.12800
H717        H  0.53808090  0.09609512  0.02734599     0.13400
H718        H  0.60825334  0.01663508  0.94720947     0.13400
H719        H  0.66612213  0.06829746  0.94730726     0.13400
H720        H  0.59465581  0.14857904  0.02636229     0.13400
C721        C  0.49042259  0.09100970  0.92428333    -0.12800
C722        C  0.51083094  0.05315146  0.91891576     0.09400
C723        C  0.52552232  0.04209353  0.87953279    -0.12800
C724        C  0.51781435  0.06813210  0.84494742    -0.12800
C725        C  0.49608783  0.10559682  0.84998726     0.09400
C726        C  0.48302231  0.11708935  0.89001648    -0.12800
H727        H  0.47849444  0.09927297  0.95465581     0.13400
H728        H  0.54073119  0.01235719  0.87531440     0.13400
H729        H  0.52889981  0.05929747  0.81442972     0.13400
H730        H  0.46780264  0.14669410  0.89498978     0.13400
C731        C  0.49831895  0.89845357  0.05355276    -0.12800
C732        C  0.48308414  0.93918522  0.05600924     0.09400
C733        C  0.46272789  0.95201171  0.09208219    -0.12800
C734        C  0.45972961  0.92481857  0.12663846    -0.12800
C735        C  0.47716577  0.88473266  0.12518021     0.09400
C736        C  0.49523244  0.87127529  0.08789813    -0.12800
H737        H  0.51379005  0.88830261  0.02556301     0.13400
H738        H  0.45064532  0.98348061  0.09393741     0.13400
H739        H  0.44604040  0.93588723  0.15521232     0.13400
H740        H  0.50859695  0.84034016  0.08608088     0.13400
C741        C  0.62385884  0.97117380  0.08115067    -0.12800
C742        C  0.61870027  0.99408422  0.11804696     0.09400
C743        C  0.58121045  0.01542364  0.12411162    -0.12800
C744        C  0.55011335  0.01510312  0.09296461    -0.12800
C745        C  0.55620602  0.99305480  0.05598375     0.09400
C746        C  0.59264951  0.97052021  0.05040707    -0.12800
H747        H  0.65272621  0.95522921  0.07517369     0.13400
H748        H  0.57633768  0.03295880  0.15245461     0.13400
H749        H  0.52185772  0.03271773  0.09714674     0.13400
H750        H  0.59740923  0.95365563  0.02159865     0.13400
C751        C  0.75685283  0.87690897  0.32223018    -0.15800
C752        C  0.74712755  0.91488533  0.30553147    -0.31000
H753        H  0.77155547  0.87337995  0.35293441     0.13200
H754        H  0.72929377  0.91559016  0.27624890     0.13800
C755        C  0.74281354  0.89439104  0.16566253    -0.15800
C756        C  0.74409217  0.93076125  0.18825350    -0.31000
H757        H  0.72777424  0.89398854  0.13486277     0.13200
H758        H  0.76232936  0.93111559  0.21724959     0.13800
C759        C  0.92793380  0.69589326  0.22532732    -0.15800
C760        C  0.90373060  0.71626963  0.19613358    -0.31000
H761        H  0.91636047  0.69078576  0.25677305     0.13200
H762        H  0.91591039  0.72409533  0.16537370     0.13800
C763        C  0.91590423  0.74560258  0.31978481    -0.15800
C764        C  0.87469507  0.74129795  0.33033392    -0.31000
H765        H  0.93625785  0.72117203  0.33205103     0.13200
H766        H  0.86714192  0.71455287  0.35046510     0.13800
C767        C  0.73054929  0.59984400  0.28257217    -0.15800
C768        C  0.70442020  0.57811322  0.25585229    -0.31000
H769        H  0.73909190  0.58601916  0.31282080     0.13200
H770        H  0.69849368  0.59029149  0.22433333     0.13800
C771        C  0.75784734  0.62772505  0.14958132    -0.15800
C772        C  0.77284986  0.59514331  0.17371594    -0.31000
H773        H  0.74842363  0.62350634  0.11697779     0.13200
H774        H  0.77860919  0.60055321  0.20685799     0.13800
C775        C  0.60414616  0.80410122  0.19477651    -0.15800
C776        C  0.57268283  0.80857255  0.22253047    -0.31000
H777        H  0.59828108  0.80506520  0.16112840     0.13200
H778        H  0.57923352  0.80329166  0.25579085     0.13800
C779        C  0.60887494  0.70782230  0.28167713    -0.15800
C780        C  0.57188186  0.70433521  0.25985255    -0.31000
H781        H  0.60954919  0.70868467  0.31571010     0.13200
H782        H  0.57191026  0.70792184  0.22586873     0.13800
C783        C  0.94266344  0.28390283  0.78593888    -0.15800
C784        C  0.91303670  0.31156945  0.77298501    -0.31000
H785        H  0.93383356  0.25102981  0.78985605     0.13200
H786        H  0.92079603  0.34423505  0.76634088     0.13800
C787        C  0.93531942  0.22102336  0.70732864    -0.15800
C788        C  0.90303406  0.19727542  0.72263924    -0.31000
H789        H  0.93019584  0.25409835  0.70057487     0.13200
H790        H  0.90737010  0.16499114  0.73287559     0.13800
C791        C  0.74718378  0.18224862  0.87877404    -0.15800
C792        C  0.75536479  0.19447502  0.91933866    -0.31000
H793        H  0.72335218  0.15850000  0.87304606     0.13200
H794        H  0.77954148  0.21825980  0.92428051     0.13800
C795        C  0.75670018  0.30555214  0.92230130    -0.15800
C796        C  0.76232891  0.32588709  0.88488672    -0.31000
H797        H  0.73539162  0.27877229  0.92319852     0.13200
H798        H  0.78242483  0.35356958  0.88400299     0.13800
C799        C  0.61343396  0.18095349  0.76596624    -0.15800
C800        C  0.58108391  0.20536248  0.77744639    -0.31000
H801        H  0.60821907  0.14978778  0.75335714     0.13200
H802        H  0.58752744  0.23747434  0.78696331     0.13800
C803        C  0.60358893  0.30080596  0.72468203    -0.15800
C804        C  0.57360941  0.27592858  0.70643075    -0.31000
H805        H  0.59688853  0.33270232  0.73373814     0.13200
H806        H  0.58018376  0.24328237  0.70020360     0.13800
C807        C  0.74893637  0.31235756  0.59857896    -0.15800
C808        C  0.71708096  0.29649942  0.57365490    -0.31000
H809        H  0.77135002  0.33454303  0.58543155     0.13200
H810        H  0.69686344  0.27238139  0.58708036     0.13800
C811        C  0.77598372  0.19662705  0.61297068    -0.15800
C812        C  0.76244216  0.20461797  0.57290295    -0.31000
H813        H  0.80872822  0.18943447  0.61811942     0.13200
H814        H  0.73040650  0.21371085  0.56751236     0.13800
C815        C  0.31220202  0.75175254  0.89137186    -0.15800
C816        C  0.29456005  0.74909477  0.92985565    -0.31000
H817        H  0.33695443  0.77450667  0.88556608     0.13200
H818        H  0.27080772  0.72497490  0.93493878     0.13800
C819        C  0.16443270  0.73589918  0.89845527    -0.15800
C820        C  0.18436566  0.74394540  0.93516522    -0.31000
H821        H  0.13706863  0.71536187  0.89851347     0.13200
H822        H  0.21030521  0.76625537  0.93545351     0.13800
C823        C  0.18423540  0.86418350  0.72812559    -0.15800
C824        C  0.21079983  0.89512808  0.71580847    -0.31000
H825        H  0.15092861  0.86923978  0.73073176     0.13200
H826        H  0.24429333  0.89015290  0.71733435     0.13800
C827        C  0.28247699  0.92205073  0.79696277    -0.15800
C828        C  0.30726084  0.89111874  0.78300562    -0.31000
H829        H  0.25086236  0.91402192  0.80639197     0.13200
H830        H  0.33726551  0.89868619  0.76934140     0.13800
C831        C  0.31845525  0.72957809  0.61776614    -0.15800
C832        C  0.29243168  0.72026632  0.58509413    -0.31000
H833        H  0.35169093  0.73507389  0.61378084     0.13200
H834        H  0.25905924  0.71743042  0.59053732     0.13800
C835        C  0.19587197  0.77502788  0.62848930    -0.15800
C836        C  0.21973842  0.79674933  0.60089524    -0.31000
H837        H  0.16410080  0.76571032  0.61988488     0.13200
H838        H  0.25271475  0.80185144  0.60825292     0.13800
C839        C  0.32580894  0.61087975  0.74888684    -0.15800
C840        C  0.31065093  0.57086836  0.75013773    -0.31000
H841        H  0.35215863  0.61910558  0.72945160     0.13200
H842        H  0.28380540  0.56433784  0.76968274     0.13800
C843        C  0.19544819  0.58165104  0.74176375    -0.15800
C844        C  0.17182012  0.56468137  0.77187650    -0.31000
H845        H  0.21830989  0.56268303  0.72629465     0.13200
H846        H  0.14887799  0.58472625  0.78602324     0.13800
loop_ 
_geom_bond_atom_site_label_1 
_geom_bond_atom_site_label_2 
_geom_bond_distance 
_geom_bond_site_symmetry_2 
_ccdc_geom_bond_type 
O1            C9   1.266       .  A
O1          Co21   2.018       .  S
O2           C10   1.299       .  A
O2          Co22   2.015       .  S
O3           C11   1.265       .  A
O3          Co23   1.857       .  S
O4           C12   1.261       .  A
O4          Co24   1.978       .  S
O5           C11   1.306       .  A
O5          Co22   2.120       .  S
O6           C12   1.269       .  A
O6          Co21   2.032       .  S
O7           C10   1.288       .  A
O7          Co24   1.968       .  S
O8            C9   1.259       .  A
O8          Co23   1.979       .  S
C9          C839   1.491       .  S
C10         C828   1.481       .  S
C11         C831   1.466       .  S
C12         C815   1.492       .  S
O13          C26   1.266       .  A
O13         Co21   1.977       .  S
O14          C27   1.299       .  A
O14         Co22   2.090       .  S
O15          C28   1.268       .  A
O15         Co23   2.002       .  S
O16          C29   1.252       .  A
O16         Co24   1.971       .  S
O17          C29   1.276       .  A
O17         Co22   2.023       .  S
O18          C28   1.271       .  A
O18         Co21   1.980       .  S
O19          C26   1.279       .  A
O19         Co24   2.035       .  S
O20          C27   1.263       .  A
O20         Co23   1.963       .  S
Co21         O25   2.042       .  S
Co22         O25   2.066       .  S
Co23         O25   1.900       .  S
Co24         O25   1.988       .  S
C26         C819   1.478       .  S
C27         C835   1.479       .  S
C28         C843   1.478       .  S
C29         C823   1.461       .  S
O30          C38   1.286       .  A
O30         Co50   1.976       .  S
O31          C39   1.259       .  A
O31         Co51   2.047       .  S
O32          C40   1.263       .  A
O32         Co52   1.858       .  S
O33          C41   1.277       .  A
O33         Co53   1.841       .  S
O34          C40   1.315       .  A
O34         Co51   2.139       .  S
O35          C41   1.321       .  A
O35         Co50   2.119       .  S
O36          C39   1.259       .  A
O36         Co53   2.002       .  S
O37          C38   1.288       .  A
O37         Co52   2.054       .  S
C38         C811   1.504       .  S
C39         C791   1.518       .  S
C40         C788   1.484       .  S
C41         C799   1.477       .  S
O42          C55   1.262       .  A
O42         Co50   1.953       .  S
O43          C56   1.268       .  A
O43         Co51   1.859       .  S
O44          C57   1.274       .  A
O44         Co52   2.038       .  S
O45          C58   1.283       .  A
O45         Co53   2.045       .  S
O46          C58   1.275       .  A
O46         Co51   1.992       .  S
O47          C57   1.258       .  A
O47         Co50   1.993       .  S
O48          C55   1.279       .  A
O48         Co53   2.020       .  S
O49          C56   1.315       .  A
O49         Co52   2.129       .  S
Co50         O54   2.052       .  S
Co51         O54   2.039       .  S
Co52         O54   2.024       .  S
Co53         O54   1.903       .  S
C55         C803   1.476       .  S
C56         C784   1.482       .  S
C57         C807   1.515       .  S
C58         C796   1.496       .  S
O59          C67   1.316       .  A
O59         Co79   2.109       .  S
O60          C68   1.290       .  A
O60         Co80   2.028       .  S
O61          C69   1.268       .  A
O61         Co81   2.035       .  S
O62          C70   1.265       .  A
O62         Co82   2.006       .  S
O63          C69   1.273       .  A
O63         Co80   2.004       .  S
O64          C70   1.278       .  A
O64         Co79   2.012       .  S
O65          C68   1.274       .  A
O65         Co82   1.982       .  S
O66          C67   1.275       .  A
O66         Co81   1.871       .  S
C67         C775   1.479       .  S
C68         C760   1.488       .  S
C69         C755   1.501       .  S
C70         C771   1.504       .  S
O71          C84   1.298       .  A
O71         Co79   2.116       .  S
O72          C85   1.279       .  A
O72         Co80   2.023       .  S
O73          C86   1.312       .  A
O73         Co81   2.108       .  S
O74          C87   1.283       .  A
O74         Co82   2.000       .  S
O75          C87   1.263       .  A
O75         Co80   1.996       .  S
O76          C86   1.274       .  A
O76         Co79   1.890       .  S
O77          C84   1.282       .  A
O77         Co82   1.920       .  S
O78          C85   1.269       .  A
O78         Co81   1.969       .  S
Co79         O83   2.068       .  S
Co80         O83   2.057       .  S
Co81         O83   2.004       .  S
Co82         O83   1.897       .  S
C84         C767   1.496       .  S
C85         C751   1.466       .  S
C86         C779   1.483       .  S
C87         C764   1.490       .  S
C88          C89   1.405   1_564  A
C88          C93   1.408       .  A
C88         C745   1.458       .  S
C89          C90   1.395       .  A
C89         C712   1.480       .  S
C90          C91   1.403   1_545  A
C90         C722   1.460       .  S
C91          C92   1.397       .  A
C91         C692   1.464       .  S
C92          C93   1.400   1_556  A
C92         C702   1.471       .  S
C93         C732   1.469       .  S
C94         C687   1.504       .  S
C94          C95   1.393       .  A
C94          C99   1.432       .  A
C95          C96   1.400   1_545  A
C95         H100   1.083       .  S
C96          C97   1.402       .  A
C96         C742   1.470       .  S
C97          C98   1.399       .  A
C97         H101   1.082       .  S
C98         C756   1.518       .  S
C98          C99   1.429   1_565  A
C99         H102   1.082       .  S
C103        C792   1.537       .  S
C103        C104   1.431       .  A
C103        C108   1.416       .  A
C104        C105   1.430   1_556  A
C104        H109   1.080   1_556  S
C105        C683   1.508       .  S
C105        C106   1.391       .  A
C106        C107   1.398   1_554  A
C106        H110   1.083       .  S
C107        C108   1.412       .  A
C107        C715   1.485       .  S
C108        H111   1.078       .  S
C112        C827   1.498       .  S
C112        C113   1.415       .  A
C112        C117   1.394       .  A
C113        C114   1.420   1_565  A
C113        H118   1.084       .  S
C114        C680   1.487       .  S
C114        C115   1.396       .  A
C115        C116   1.403       .  A
C115        H119   1.083       .  S
C116        C117   1.400   1_545  A
C116        C695   1.473       .  S
C117        H120   1.080       .  S
C121        C800   1.483       .  S
C121        C122   1.389       .  A
C121        C126   1.421       .  A
C122        C123   1.388       .  A
C122        H127   1.083       .  S
C123        C124   1.397       .  A
C123        C725   1.461       .  S
C124        C125   1.405       .  A
C124        H128   1.078       .  S
C125        C675   1.508       .  S
C125        C126   1.419       .  A
C126        H129   1.083       .  S
C130        C671   1.504       .  S
C130        C131   1.411       .  A
C130        C135   1.417       .  A
C131        C132   1.402       .  A
C131        H136   1.081       .  S
C132        C133   1.396       .  A
C132        C735   1.472       .  S
C133        C134   1.394       .  A
C133        H137   1.082       .  S
C134        C776   1.491       .  S
C134        C135   1.417       .  A
C135        H138   1.083       .  S
C139        C667   1.494       .  S
C139        C140   1.399       .  A
C139        C144   1.420       .  A
C140        C141   1.406   1_554  A
C140        H145   1.083       .  S
C141        C142   1.406       .  A
C141        C705   1.482       .  S
C142        C143   1.404       .  A
C142        H146   1.079       .  S
C143        C816   1.512       .  S
C143        C144   1.415   1_556  A
C144        H147   1.080       .  S
C148        C149   1.402   1_654  A
C148        C153   1.406       .  A
C148        C648   1.466       .  S
C149        C150   1.400       .  A
C149        C658   1.473       .  S
C150        C151   1.400   1_556  A
C150        C608   1.461       .  S
C151        C152   1.399       .  A
C151        C618   1.471       .  S
C152        C153   1.403   1_455  A
C152        C628   1.467       .  S
C153        C641   1.471       .  S
C154        C820   1.497       .  S
C154        C155   1.410       .  A
C154        C159   1.406   1_556  A
C155        C156   1.403   1_556  A
C155        H160   1.081       .  S
C156        C157   1.390       .  A
C156        C621   1.465       .  S
C157        C158   1.389       .  A
C157        H161   1.084       .  S
C158        C603   1.468       .  S
C158        C159   1.410       .  A
C159        H162   1.083       .  S
C163        C844   1.480       .  S
C163        C164   1.391       .  A
C163        C168   1.406       .  A
C164        C165   1.394       .  A
C164        H169   1.085       .  S
C165        C166   1.395       .  A
C165        C611   1.468       .  S
C166        C167   1.402       .  A
C166        H170   1.082       .  S
C167        C599   1.476       .  S
C167        C168   1.417       .  A
C168        H171   1.083       .  S
C172        C759   1.487       .  S
C172        C173   1.393       .  A
C172        C177   1.418   1_655  A
C173        C174   1.400   1_655  A
C173        H178   1.083       .  S
C174        C175   1.402       .  A
C174        C631   1.473       .  S
C175        C176   1.402       .  A
C175        H179   1.079       .  S
C176        C596   1.503       .  S
C176        C177   1.411       .  A
C177        H180   1.080   1_455  S
C181        C772   1.493       .  S
C181        C182   1.418       .  A
C181        C186   1.402       .  A
C182        C183   1.412       .  A
C182        H187   1.074       .  S
C183        C591   1.501       .  S
C183        C184   1.393       .  A
C184        C185   1.406       .  A
C184        H188   1.083       .  S
C185        C186   1.412       .  A
C185        C638   1.476       .  S
C186        H189   1.084       .  S
C190        C587   1.505       .  S
C190        C191   1.410       .  A
C190        C195   1.412       .  A
C191        C192   1.406       .  A
C191        H196   1.078       .  S
C192        C193   1.402   1_455  A
C192        C661   1.477       .  S
C193        C194   1.393       .  A
C193        H197   1.084       .  S
C194        C783   1.483       .  S
C194        C195   1.412   1_655  A
C195        H198   1.079       .  S
C199        C583   1.498       .  S
C199        C200   1.427       .  A
C199        C204   1.389       .  A
C200        C201   1.425   1_554  A
C200        H205   1.083       .  S
C201        C795   1.516       .  S
C201        C202   1.409       .  A
C202        C203   1.401       .  A
C202        H206   1.081       .  S
C203        C204   1.393   1_556  A
C203        C651   1.468       .  S
C204        H207   1.082       .  S
C208        C209   1.408       .  A
C208        C213   1.410       .  A
C208        C574   1.465       .  S
C209        C210   1.402       .  A
C209        C534   1.480       .  S
C210        C211   1.399       .  A
C210        C524   1.461       .  S
C211        C212   1.403       .  A
C211        C544   1.481       .  S
C212        C213   1.407       .  A
C212        C554   1.459       .  S
C213        C564   1.486       .  S
C214        C520   1.500       .  S
C214        C215   1.416       .  A
C214        C219   1.407       .  A
C215        C216   1.421       .  A
C215        H220   1.079       .  S
C216        C804   1.481       .  S
C216        C217   1.392       .  A
C217        C218   1.389       .  A
C217        H221   1.084       .  S
C218        C219   1.400       .  A
C218        C577   1.470       .  S
C219        H222   1.084       .  S
C223        C832   1.475       .  S
C223        C224   1.394       .  A
C223        C228   1.407       .  A
C224        C225   1.392       .  A
C224        H229   1.083       .  S
C225        C226   1.395       .  A
C225        C527   1.460       .  S
C226        C227   1.404       .  A
C226        H230   1.078       .  S
C227        C515   1.485       .  S
C227        C228   1.408       .  A
C228        H231   1.083       .  S
C232        C768   1.504       .  S
C232        C233   1.429       .  A
C232        C237   1.390       .  A
C233        C234   1.429       .  A
C233        H238   1.080       .  S
C234        C511   1.516       .  S
C234        C235   1.402       .  A
C235        C236   1.401       .  A
C235        H239   1.079       .  S
C236        C237   1.394       .  A
C236        C557   1.467       .  S
C237        H240   1.084       .  S
C241        C780   1.500       .  S
C241        C242   1.393       .  A
C241        C246   1.421       .  A
C242        C243   1.395       .  A
C242        H247   1.082       .  S
C243        C244   1.408       .  A
C243        C547   1.480       .  S
C244        C245   1.416       .  A
C244        H248   1.079       .  S
C245        C507   1.521       .  S
C245        C246   1.425       .  A
C246        H249   1.083       .  S
C250        C840   1.506       .  S
C250        C251   1.412       .  A
C250        C255   1.411       .  A
C251        C252   1.409       .  A
C251        H256   1.081       .  S
C252        C503   1.485       .  S
C252        C253   1.395       .  A
C253        C254   1.406       .  A
C253        H257   1.083       .  S
C254        C255   1.412       .  A
C254        C537   1.487       .  S
C255        H258   1.079       .  S
C259        C499   1.506       .  S
C259        C260   1.402       .  A
C259        C264   1.425       .  A
C260        C261   1.418       .  A
C260        H265   1.084       .  S
C261        C262   1.413       .  A
C261        C567   1.490       .  S
C262        C263   1.396       .  A
C262        H266   1.083       .  S
C263        C808   1.513       .  S
C263        C264   1.424       .  A
C264        H267   1.083       .  S
C268        C269   1.403       .  A
C268        C273   1.401   1_465  A
C268        C480   1.453       .  S
C269        C270   1.395   1_455  A
C269        C490   1.470       .  S
C270        C271   1.399       .  A
C270        C440   1.471       .  S
C271        C272   1.398   1_565  A
C271        C450   1.448       .  S
C272        C273   1.395       .  A
C272        C460   1.471       .  S
C273        C470   1.468       .  S
C274        C787   1.490       .  S
C274        C275   1.393       .  A
C274        C279   1.420   1_655  A
C275        C276   1.396   1_655  A
C275        H280   1.084       .  S
C276        C277   1.402       .  A
C276        C473   1.470       .  S
C277        C278   1.406       .  A
C277        H281   1.080       .  S
C278        C436   1.507       .  S
C278        C279   1.418       .  A
C279        H282   1.083       .  S
C283        C431   1.479       .  S
C283        C284   1.398       .  A
C283        C288   1.405   1_545  A
C284        C285   1.396   1_545  A
C284        H289   1.083       .  S
C285        C286   1.391       .  A
C285        C483   1.452       .  S
C286        C287   1.389       .  A
C286        H290   1.084       .  S
C287        C824   1.466       .  S
C287        C288   1.407       .  A
C288        H291   1.078       .  S
C292        C836   1.486       .  S
C292        C293   1.401       .  A
C292        C297   1.412       .  A
C293        C294   1.404       .  A
C293        H298   1.083       .  S
C294        C295   1.404       .  A
C294        C493   1.481       .  S
C295        C296   1.401       .  A
C295        H299   1.082       .  S
C296        C427   1.493       .  S
C296        C297   1.410       .  A
C297        H300   1.083       .  S
C301        C812   1.514       .  S
C301        C302   1.393       .  A
C301        C306   1.420       .  A
C302        C303   1.402       .  A
C302        H307   1.081       .  S
C303        C304   1.410       .  A
C303        C463   1.479       .  S
C304        C305   1.409       .  A
C304        H308   1.080       .  S
C305        C423   1.520       .  S
C305        C306   1.422       .  A
C306        H309   1.068       .  S
C310        C419   1.481       .  S
C310        C311   1.417   1_545  A
C310        C315   1.389       .  A
C311        C312   1.418       .  A
C311        H316   1.081       .  S
C312        C752   1.492       .  S
C312        C313   1.399       .  A
C313        C314   1.392       .  A
C313        H317   1.079       .  S
C314        C315   1.387   1_565  A
C314        C453   1.454       .  S
C315        H318   1.084       .  S
C319        C415   1.529       .  S
C319        C320   1.424   1_455  A
C319        C324   1.406       .  A
C320        C321   1.426       .  A
C320        H325   1.067       .  S
C321        C763   1.507       .  S
C321        C322   1.391       .  A
C322        C323   1.405       .  A
C322        H326   1.084       .  S
C323        C324   1.409   1_655  A
C323        C443   1.476       .  S
C324        H327   1.079       .  S
O328        C336   1.299       .  A
O328       Co348   2.086       .  S
O329        C337   1.275       .  A
O329       Co349   2.012       .  S
O330        C338   1.275       .  A
O330       Co350   1.981       .  S
O331        C339   1.261       .  A
O331       Co351   1.983       .  S
O332        C338   1.283       .  A
O332       Co349   2.038       .  S
O333        C339   1.269       .  A
O333       Co348   2.017       .  S
O334        C337   1.261       .  A
O334       Co351   1.961       .  S
O335        C336   1.271       .  A
O335       Co350   1.886       .  S
C336        C432   1.463       .  S
C337        C504   1.480       .  S
C338        C435   1.487       .  S
C339        C519   1.497       .  S
O340        C353   1.296       .  A
O340       Co348   2.073       .  S
O341        C354   1.255       .  A
O341       Co349   2.004       .  S
O342        C355   1.292       .  A
O342       Co350   2.072       .  S
O343        C356   1.317       .  A
O343       Co351   2.128       .  S
O344        C356   1.273       .  A
O344       Co349   1.829       .  S
O345        C355   1.274       .  A
O345       Co348   1.943       .  S
O346        C353   1.281       .  A
O346       Co351   1.933       .  S
O347        C354   1.254       .  A
O347       Co350   2.011       .  S
Co348       O352   2.050       .  S
Co349       O352   1.872       .  S
Co350       O352   2.015       .  S
Co351       O352   2.003       .  S
C353        C676   1.483       .  S
C354        C588   1.484       .  S
C355        C679   1.486       .  S
C356        C600   1.469       .  S
O357        C365   1.270       .  A
O357       Co377   1.898       .  S
O358        C366   1.272       .  A
O358       Co378   2.019       .  S
O359        C367   1.280       .  A
O359       Co379   1.996       .  S
O360        C368   1.255       .  A
O360       Co380   1.997       .  S
O361        C367   1.269       .  A
O361       Co378   1.995       .  S
O362        C368   1.253       .  A
O362       Co377   1.995       .  S
O363        C366   1.278       .  A
O363       Co380   2.015       .  S
O364        C365   1.309       .  A
O364       Co379   2.108       .  S
C365        C420   1.475       .  S
C366        C592   1.494       .  S
C367        C584   1.491       .  S
C368        C424   1.500       .  S
O369        C382   1.278       .  A
O369       Co377   2.011       .  S
O370        C383   1.288       .  A
O370       Co378   2.031       .  S
O371        C384   1.264       .  A
O371       Co379   1.995       .  S
O372        C385   1.268       .  A
O372       Co380   2.000       .  S
O373        C385   1.276       .  A
O373       Co378   1.999       .  S
O374        C384   1.280       .  A
O374       Co377   2.012       .  S
O375        C382   1.273       .  A
O375       Co380   2.021       .  S
O376        C383   1.270       .  A
O376       Co379   2.005       .  S
Co377       O381   1.973       .  S
Co378       O381   2.105       .  S
Co379       O381   2.106       .  S
Co380       O381   2.133       .  S
C382        C500   1.502       .  S
C383        C684   1.501       .  S
C384        C688   1.500       .  S
C385        C512   1.489       .  S
O386        C394   1.276       .  A
O386       Co406   1.945       .  S
O387        C395   1.241       .  A
O387       Co407   1.977       .  S
O388        C396   1.270       .  A
O388       Co408   1.866       .  S
O389        C397   1.275       .  A
O389       Co409   1.829       .  S
O390        C396   1.298       .  A
O390       Co407   2.074       .  S
O391        C397   1.315       .  A
O391       Co406   2.113       .  S
O392        C395   1.260       .  A
O392       Co409   2.015       .  S
O393        C394   1.297       .  A
O393       Co408   2.064       .  S
C394        C508   1.502       .  S
C395        C595   1.481       .  S
C396        C516   1.450       .  S
C397        C604   1.463       .  S
O398        C411   1.256       .  A
O398       Co406   1.940       .  S
O399        C412   1.249       .  A
O399       Co407   1.935       .  S
O400        C413   1.260       .  A
O400       Co408   2.012       .  S
O401        C414   1.290       .  A
O401       Co409   2.068       .  S
O402        C414   1.274       .  A
O402       Co407   1.981       .  S
O403        C413   1.254       .  A
O403       Co406   1.986       .  S
O404        C411   1.286       .  A
O404       Co409   2.047       .  S
O405        C412   1.272       .  A
O405       Co408   2.038       .  S
Co406       O410   2.029       .  S
Co407       O410   2.083       .  S
Co408       O410   2.029       .  S
Co409       O410   1.934       .  S
C411        C668   1.497       .  S
C412        C428   1.473       .  S
C413        C672   1.482       .  S
C414        C416   1.505       .  S
C415        C416   1.368       .  D
C415        H417   1.085       .  S
C416        H418   1.082       .  S
C419        C420   1.362       .  D
C419        H421   1.086       .  S
C420        H422   1.086       .  S
C423        C424   1.365       .  D
C423        H425   1.087       .  S
C424        H426   1.083       .  S
C427        C428   1.354       .  D
C427        H429   1.085       .  S
C428        H430   1.085       .  S
C431        C432   1.343       .  D
C431        H433   1.083       .  S
C432        H434   1.085       .  S
C435        C436   1.359       .  D
C435        H437   1.083       .  S
C436        H438   1.086       .  S
C439        C440   1.401       .  A
C439        C444   1.393       .  A
C439        H445   1.083   1_655  S
C440        C441   1.395       .  A
C441        C442   1.391       .  A
C441        H446   1.083       .  S
C442        C443   1.408       .  A
C442        H447   1.083       .  S
C443        C444   1.403       .  A
C444        H448   1.083   1_655  S
C449        C450   1.395   1_545  A
C449        C454   1.384       .  A
C449        H455   1.083       .  S
C450        C451   1.395       .  A
C451        C452   1.382       .  A
C451        H456   1.084       .  S
C452        C453   1.402       .  A
C452        H457   1.083       .  S
C453        C454   1.403   1_565  A
C454        H458   1.083       .  S
C459        C460   1.401       .  A
C459        C464   1.396       .  A
C459        H465   1.083       .  S
C460        C461   1.395       .  A
C461        C462   1.389       .  A
C461        H466   1.083       .  S
C462        C463   1.408       .  A
C462        H467   1.082       .  S
C463        C464   1.405       .  A
C464        H468   1.083       .  S
C469        C470   1.398   1_455  A
C469        C474   1.389       .  A
C469        H475   1.083       .  S
C470        C471   1.399       .  A
C471        C472   1.393       .  A
C471        H476   1.083       .  S
C472        C473   1.406   1_655  A
C472        H477   1.083       .  S
C473        C474   1.403       .  A
C474        H478   1.083       .  S
C479        C480   1.395       .  A
C479        C484   1.387       .  A
C479        H485   1.083       .  S
C480        C481   1.397   1_565  A
C481        C482   1.383       .  A
C481        H486   1.084       .  S
C482        C483   1.399   1_545  A
C482        H487   1.083       .  S
C483        C484   1.403       .  A
C484        H488   1.083       .  S
C489        C490   1.400       .  A
C489        C494   1.397       .  A
C489        H495   1.083       .  S
C490        C491   1.395       .  A
C491        C492   1.386       .  A
C491        H496   1.084       .  S
C492        C493   1.407       .  A
C492        H497   1.082       .  S
C493        C494   1.408       .  A
C494        H498   1.082       .  S
C499        C500   1.373       .  D
C499        H501   1.088       .  S
C500        H502   1.088       .  S
C503        C504   1.357       .  D
C503        H505   1.087       .  S
C504        H506   1.085       .  S
C507        C508   1.364       .  D
C507        H509   1.087       .  S
C508        H510   1.081       .  S
C511        C512   1.367       .  D
C511        H513   1.082       .  S
C512        H514   1.082       .  S
C515        C516   1.343       .  D
C515        H517   1.087       .  S
C516        H518   1.080       .  S
C519        C520   1.356       .  D
C519        H521   1.085       .  S
C520        H522   1.088       .  S
C523        C524   1.399       .  A
C523        C528   1.385       .  A
C523        H529   1.083       .  S
C524        C525   1.396       .  A
C525        C526   1.389       .  A
C525        H530   1.083       .  S
C526        C527   1.404       .  A
C526        H531   1.083       .  S
C527        C528   1.401       .  A
C528        H532   1.083       .  S
C533        C534   1.399       .  A
C533        C538   1.398       .  A
C533        H539   1.083       .  S
C534        C535   1.399       .  A
C535        C536   1.392       .  A
C535        H540   1.083       .  S
C536        C537   1.407       .  A
C536        H541   1.082       .  S
C537        C538   1.409       .  A
C538        H542   1.082       .  S
C543        C544   1.403       .  A
C543        C548   1.395       .  A
C543        H549   1.083       .  S
C544        C545   1.397       .  A
C545        C546   1.395       .  A
C545        H550   1.083       .  S
C546        C547   1.410       .  A
C546        H551   1.083       .  S
C547        C548   1.402       .  A
C548        H552   1.083       .  S
C553        C554   1.398       .  A
C553        C558   1.385       .  A
C553        H559   1.083       .  S
C554        C555   1.395       .  A
C555        C556   1.389       .  A
C555        H560   1.083       .  S
C556        C557   1.407       .  A
C556        H561   1.083       .  S
C557        C558   1.402       .  A
C558        H562   1.083       .  S
C563        C564   1.400       .  A
C563        C568   1.396       .  A
C563        H569   1.082       .  S
C564        C565   1.402       .  A
C565        C566   1.400       .  A
C565        H570   1.083       .  S
C566        C567   1.408       .  A
C566        H571   1.083       .  S
C567        C568   1.409       .  A
C568        H572   1.082       .  S
C573        C574   1.397       .  A
C573        C578   1.392       .  A
C573        H579   1.083       .  S
C574        C575   1.400       .  A
C575        C576   1.389       .  A
C575        H580   1.083       .  S
C576        C577   1.401       .  A
C576        H581   1.083       .  S
C577        C578   1.407       .  A
C578        H582   1.083       .  S
C583        C584   1.375       .  D
C583        H585   1.086       .  S
C584        H586   1.084       .  S
C587        C588   1.353       .  D
C587        H589   1.086       .  S
C588        H590   1.081       .  S
C591        C592   1.361       .  D
C591        H593   1.077       .  S
C592        H594   1.085       .  S
C595        C596   1.358       .  D
C595        H597   1.081       .  S
C596        H598   1.087       .  S
C599        C600   1.356       .  D
C599        H601   1.088       .  S
C600        H602   1.085       .  S
C603        C604   1.355       .  D
C603        H605   1.087       .  S
C604        H606   1.085       .  S
C607        C608   1.399       .  A
C607        C612   1.396       .  A
C607        H613   1.083       .  S
C608        C609   1.392       .  A
C609        C610   1.375       .  A
C609        H614   1.084       .  S
C610        C611   1.406       .  A
C610        H615   1.083       .  S
C611        C612   1.406       .  A
C612        H616   1.083       .  S
C617        C618   1.398       .  A
C617        C622   1.393       .  A
C617        H623   1.083       .  S
C618        C619   1.400       .  A
C619        C620   1.386   1_554  A
C619        H624   1.083   1_554  S
C620        C621   1.400   1_556  A
C620        H625   1.083       .  S
C621        C622   1.407       .  A
C622        H626   1.083       .  S
C627        C628   1.399   1_655  A
C627        C632   1.391       .  A
C627        H633   1.083       .  S
C628        C629   1.396       .  A
C629        C630   1.388       .  A
C629        H634   1.083       .  S
C630        C631   1.406       .  A
C630        H635   1.083       .  S
C631        C632   1.406   1_455  A
C632        H636   1.083       .  S
C637        C638   1.408       .  A
C637        C642   1.389       .  A
C637        H643   1.083       .  S
C638        C639   1.403       .  A
C639        C640   1.396       .  A
C639        H644   1.083       .  S
C640        C641   1.403       .  A
C640        H645   1.083       .  S
C641        C642   1.394       .  A
C642        H646   1.083       .  S
C647        C648   1.397       .  A
C647        C652   1.389       .  A
C647        H653   1.083       .  S
C648        C649   1.400   1_554  A
C649        C650   1.391       .  A
C649        H654   1.083       .  S
C650        C651   1.403       .  A
C650        H655   1.083       .  S
C651        C652   1.406   1_556  A
C652        H656   1.083       .  S
C657        C658   1.399       .  A
C657        C662   1.390       .  A
C657        H663   1.083   1_455  S
C658        C659   1.397       .  A
C659        C660   1.395       .  A
C659        H664   1.083       .  S
C660        C661   1.408       .  A
C660        H665   1.083       .  S
C661        C662   1.405       .  A
C662        H666   1.083   1_455  S
C667        C668   1.369       .  D
C667        H669   1.087       .  S
C668        H670   1.085       .  S
C671        C672   1.354       .  D
C671        H673   1.085       .  S
C672        H674   1.084       .  S
C675        C676   1.361       .  D
C675        H677   1.087       .  S
C676        H678   1.080       .  S
C679        C680   1.357       .  D
C679        H681   1.087       .  S
C680        H682   1.087       .  S
C683        C684   1.375       .  D
C683        H685   1.085       .  S
C684        H686   1.085       .  S
C687        C688   1.376       .  D
C687        H689   1.086       .  S
C688        H690   1.085       .  S
C691        C692   1.394   1_545  A
C691        C696   1.384       .  A
C691        H697   1.084       .  S
C692        C693   1.399       .  A
C693        C694   1.391       .  A
C693        H698   1.083       .  S
C694        C695   1.406   1_565  A
C694        H699   1.083       .  S
C695        C696   1.408       .  A
C696        H700   1.082       .  S
C701        C702   1.395       .  A
C701        C706   1.389       .  A
C701        H707   1.084       .  S
C702        C703   1.401   1_556  A
C703        C704   1.398       .  A
C703        H708   1.083       .  S
C704        C705   1.407   1_554  A
C704        H709   1.083       .  S
C705        C706   1.409       .  A
C706        H710   1.083       .  S
C711        C712   1.398   1_554  A
C711        C716   1.394       .  A
C711        H717   1.083       .  S
C712        C713   1.402       .  A
C713        C714   1.399       .  A
C713        H718   1.083       .  S
C714        C715   1.405       .  A
C714        H719   1.083       .  S
C715        C716   1.409   1_556  A
C716        H720   1.083       .  S
C721        C722   1.395       .  A
C721        C726   1.382       .  A
C721        H727   1.084       .  S
C722        C723   1.399       .  A
C723        C724   1.391       .  A
C723        H728   1.083       .  S
C724        C725   1.403       .  A
C724        H729   1.083       .  S
C725        C726   1.404       .  A
C726        H730   1.083       .  S
C731        C732   1.397       .  A
C731        C736   1.390       .  A
C731        H737   1.083       .  S
C732        C733   1.400       .  A
C733        C734   1.395       .  A
C733        H738   1.083       .  S
C734        C735   1.404       .  A
C734        H739   1.083       .  S
C735        C736   1.405       .  A
C736        H740   1.083       .  S
C741        C742   1.405       .  A
C741        C746   1.385       .  A
C741        H747   1.083       .  S
C742        C743   1.406   1_565  A
C743        C744   1.392       .  A
C743        H748   1.083       .  S
C744        C745   1.397   1_545  A
C744        H749   1.083       .  S
C745        C746   1.395       .  A
C746        H750   1.084       .  S
C751        C752   1.354       .  D
C751        H753   1.082       .  S
C752        H754   1.084       .  S
C755        C756   1.372       .  D
C755        H757   1.084       .  S
C756        H758   1.083       .  S
C759        C760   1.363       .  D
C759        H761   1.084       .  S
C760        H762   1.086       .  S
C763        C764   1.372       .  D
C763        H765   1.087       .  S
C764        H766   1.087       .  S
C767        C768   1.368       .  D
C767        H769   1.086       .  S
C768        H770   1.086       .  S
C771        C772   1.371       .  D
C771        H773   1.085       .  S
C772        H774   1.083       .  S
C775        C776   1.363       .  D
C775        H777   1.084       .  S
C776        H778   1.087       .  S
C779        C780   1.365       .  D
C779        H781   1.084       .  S
C780        H782   1.087       .  S
C783        C784   1.359       .  D
C783        H785   1.087       .  S
C784        H786   1.085       .  S
C787        C788   1.365       .  D
C787        H789   1.087       .  S
C788        H790   1.085       .  S
C791        C792   1.373       .  D
C791        H793   1.081       .  S
C792        H794   1.085       .  S
C795        C796   1.362       .  D
C795        H797   1.084       .  S
C796        H798   1.084       .  S
C799        C800   1.363       .  D
C799        H801   1.085       .  S
C800        H802   1.086       .  S
C803        C804   1.361       .  D
C803        H805   1.086       .  S
C804        H806   1.086       .  S
C807        C808   1.374       .  D
C807        H809   1.085       .  S
C808        H810   1.086       .  S
C811        C812   1.362       .  D
C811        H813   1.085       .  S
C812        H814   1.080       .  S
C815        C816   1.360       .  D
C815        H817   1.082       .  S
C816        H818   1.085       .  S
C819        C820   1.346       .  D
C819        H821   1.085       .  S
C820        H822   1.084       .  S
C823        C824   1.351       .  D
C823        H825   1.086       .  S
C824        H826   1.086       .  S
C827        C828   1.359       .  D
C827        H829   1.087       .  S
C828        H830   1.084       .  S
C831        C832   1.353       .  D
C831        H833   1.085       .  S
C832        H834   1.088       .  S
C835        C836   1.352       .  D
C835        H837   1.086       .  S
C836        H838   1.087       .  S
C839        C840   1.357       .  D
C839        H841   1.083       .  S
C840        H842   1.087       .  S
C843        C844   1.336       .  D
C843        H845   1.086       .  S
C844        H846   1.089       .  S
