geometry optimzed in LAMMPS
_audit_creation_date              2020-11-30 
_audit_creation_method            'lammps2cif' 
_symmetry_space_group_name_H-M    'P1' 
_symmetry_Int_Tables_number       1 
_symmetry_cell_setting            triclinic 
loop_ 
_symmetry_equiv_pos_as_xyz 
  x,y,z 
_cell_length_a                    39.23586447408774 
_cell_length_b                    40.696436969070064 
_cell_length_c                    40.34153116349975 
_cell_angle_alpha                 89.93728883043264 
_cell_angle_beta                  89.56237500372252 
_cell_angle_gamma                 90.89476284944112 
loop_ 
_atom_site_label 
_atom_site_type_symbol 
_atom_site_fract_x 
_atom_site_fract_y 
_atom_site_fract_z 
_atom_site_charge 
O1          O  0.46849007  0.53250079  0.55804325    -0.81290
O2          O  0.51407405  0.43145959  0.46009016    -0.65980
O3          O  0.51150585  0.50795292  0.51257559    -1.12580
C4          C  0.43367317  0.54634363  0.43042452     1.05600
O5          O  0.51425437  0.46092403  0.41375221    -0.79180
O6          O  0.51149682  0.52558175  0.41169290    -0.66770
Ni7        Ni  0.50993010  0.50883834  0.55860669     1.34870
C8          C  0.52486845  0.54677144  0.43099815     0.84340
O9          O  0.54168492  0.44631235  0.52013196    -0.79720
O10         O  0.55044268  0.48294892  0.56079892    -0.90000
C11         C  0.52622277  0.43814835  0.43115846     0.83910
O12         O  0.48273091  0.47090597  0.56607083    -0.68200
O13         O  0.44182135  0.52169123  0.41297343    -0.87490
C14         C  0.46742320  0.45015762  0.54800108     0.84740
C15         C  0.55470790  0.45450343  0.54819456     1.06310
H16         H  0.45535161  0.48006859  0.46813518     0.38110
O17         O  0.47720331  0.49014905  0.46295424    -1.10150
O18         O  0.51507945  0.55083426  0.46109883    -0.66800
Ni19       Ni  0.47812993  0.53015778  0.48695538     1.26350
O20         O  0.47307751  0.44755856  0.51655720    -0.67030
O21         O  0.44539743  0.55176456  0.45942158    -0.79320
C22         C  0.46309539  0.56015428  0.54491800     0.84120
O23         O  0.47621490  0.56700799  0.51665758    -0.66500
Ni24       Ni  0.47815068  0.49093766  0.41586789     1.27450
Ni25       Ni  0.51050416  0.46786088  0.48990248     1.26060
H26         H  0.53339867  0.51784526  0.50719895     0.38670
O27         O  0.47719358  0.21545018  0.17400260    -0.81290
O28         O  0.52688452  0.32154475  0.27622902    -0.65980
O29         O  0.51943660  0.24501182  0.22101011    -1.12580
C30         C  0.44202470  0.20589364  0.30503691     1.05600
O31         O  0.52670770  0.29010721  0.32089439    -0.79180
O32         O  0.51765021  0.22562885  0.32251626    -0.66770
Ni33       Ni  0.51621919  0.24472569  0.17437209     1.34870
C34         C  0.53155510  0.20581078  0.30236936     0.84340
O35         O  0.55303114  0.30640161  0.21621690    -0.79720
O36         O  0.55393633  0.27519480  0.17023918    -0.90000
C37         C  0.53727148  0.31568387  0.30573123     0.83910
O38         O  0.48558752  0.27986136  0.17215511    -0.68200
O39         O  0.44830022  0.23255303  0.32054869    -0.87490
C40         C  0.47491101  0.30178631  0.19176812     0.84740
C41         C  0.56169217  0.30139876  0.18597008     1.06310
H42         H  0.46552081  0.27293910  0.26731336     0.38110
O43         O  0.48691075  0.26259362  0.27214642    -1.10150
O44         O  0.52277432  0.20283831  0.27206684    -0.66800
Ni45       Ni  0.48592098  0.22274696  0.24787848     1.26350
O46         O  0.48551801  0.30614050  0.22142813    -0.67030
O47         O  0.45443808  0.19995527  0.27651361    -0.79320
C48         C  0.46704027  0.19163406  0.19201290     0.84120
O49         O  0.48217220  0.18593796  0.21912175    -0.66500
Ni50       Ni  0.48750574  0.26164307  0.31869111     1.27450
Ni51       Ni  0.52141607  0.28468849  0.24584290     1.26060
H52         H  0.54101077  0.23463696  0.22493584     0.38670
C53         C  0.79421483  0.81926556  0.97445440     0.02730
C54         C  0.81047452  0.79423889  0.95699838    -0.13420
C55         C  0.79536792  0.77893875  0.92958541     0.00230
C56         C  0.76438520  0.79150859  0.91756143    -0.11940
C57         C  0.74704373  0.81691441  0.93451499     0.02730
C58         C  0.76238110  0.82976757  0.96334389    -0.11360
H59         H  0.83479906  0.78556724  0.96569258     0.08320
H60         H  0.75382018  0.78123159  0.89516388     0.05850
H61         H  0.74925465  0.84781759  0.97788276     0.05700
C62         C  0.93463906  0.95766672  0.98866931     0.02730
C63         C  0.96462520  0.94172984  0.97686997    -0.13420
C64         C  0.98270418  0.95344666  0.94825450     0.00230
C65         C  0.96487549  0.97592755  0.92899545    -0.11940
C66         C  0.93838781  0.99444940  0.94145002     0.02730
C67         C  0.92411732  0.98617945  0.97220893    -0.11360
H68         H  0.97255881  0.91960948  0.98922706     0.08320
H69         H  0.96990410  0.97854998  0.90326653     0.05850
H70         H  0.90288483  0.00010415  0.98175367     0.05700
C71         C  0.99042702  0.82264029  0.80449248     0.02730
C72         C  0.98018679  0.79082203  0.81487640    -0.13420
C73         C  0.95191132  0.77433774  0.80089179     0.00230
C74         C  0.93582086  0.78813355  0.77372163    -0.11940
C75         C  0.94562237  0.81946456  0.76221400     0.02730
C76         C  0.97159298  0.83726209  0.77876781    -0.11360
H77         H  0.99250758  0.77982934  0.83599016     0.08320
H78         H  0.91425477  0.77533968  0.76278357     0.05850
H79         H  0.97644694  0.86254945  0.77175166     0.05700
C80         C  0.10281913  0.88500778  0.88575236    -0.02880
C81         C  0.85816798  0.87984636  0.09295008    -0.02880
C82         C  0.79786803  0.99989911  0.80287301     0.02730
C83         C  0.81756899  0.98238046  0.78057518    -0.13420
C84         C  0.80832448  0.95051997  0.77156307     0.00230
C85         C  0.78014436  0.93489255  0.78740317    -0.11940
C86         C  0.75831955  0.95266545  0.80923746     0.02730
C87         C  0.76739226  0.98588519  0.81524022    -0.11360
H88         H  0.84075389  0.99342826  0.77045471     0.08320
H89         H  0.77590948  0.90906305  0.78274400     0.05850
H90         H  0.75167675  0.00121328  0.83051091     0.05700
C91         C  0.88013013  0.89459376  0.65763659    -0.02880
C92         C  0.88059948  0.67092106  0.87460296    -0.02880
C93         C  0.63683525  0.88197937  0.86963752    -0.02880
C94         C  0.87992205  0.10446622  0.86505889    -0.02880
O95         O  0.22590834  0.43038364  0.30213155    -0.81290
O96         O  0.26833849  0.52399968  0.18626973    -0.65980
O97         O  0.26467391  0.47410864  0.26477582    -1.12580
C98         C  0.18772889  0.55884428  0.30086794     1.05600
O99         O  0.27129619  0.57046143  0.21416824    -0.79180
O100        O  0.25985180  0.57806145  0.27734499    -0.66770
Ni101      Ni  0.25523344  0.42833937  0.26347589     1.34870
C102        C  0.27833246  0.56156802  0.29652268     0.84340
O103        O  0.29981104  0.47087453  0.20455813    -0.79720
O104        O  0.28364812  0.42181896  0.22380311    -0.90000
C105        C  0.28264255  0.55143321  0.19180379     0.83910
O106        O  0.21512269  0.43116517  0.23726799    -0.68200
O107        O  0.19129780  0.57175878  0.27194756    -0.87490
C108        C  0.21140926  0.44587679  0.20988994     0.84740
C109        C  0.30079846  0.43974860  0.20324627     1.06310
H110        H  0.20854296  0.51557694  0.23638073     0.38110
O111        O  0.23031608  0.52266780  0.24507550    -1.10150
O112        O  0.27324851  0.53059190  0.30101966    -0.66800
Ni113      Ni  0.23396601  0.50306675  0.28738704     1.26350
O114        O  0.23013125  0.47056072  0.20126145    -0.67030
O115        O  0.20362416  0.53311956  0.30965014    -0.79320
C116        C  0.22039234  0.45028135  0.32600353     0.84120
O117        O  0.23502851  0.47838243  0.32749106    -0.66500
Ni118      Ni  0.23050735  0.56908582  0.24185462     1.27450
Ni119      Ni  0.26503801  0.49710083  0.22409467     1.26060
H120        H  0.28703436  0.47667295  0.27439730     0.38670
O121        O  0.17279132  0.27912869  0.54758797    -0.81290
O122        O  0.27331810  0.22276292  0.43585606    -0.65980
O123        O  0.22241559  0.23850572  0.51595179    -1.12580
C124        C  0.31092398  0.31318120  0.54430409     1.05600
O125        O  0.32430225  0.22786243  0.45856848    -0.79180
O126        O  0.32255668  0.23148347  0.52247015    -0.66770
Ni127      Ni  0.17455193  0.24615772  0.51309518     1.34870
C128        C  0.30621200  0.22785666  0.54933832     0.84340
O129        O  0.21861704  0.19476944  0.46276488    -0.79720
O130        O  0.16861904  0.21574659  0.47580528    -0.90000
C131        C  0.30396229  0.21336834  0.43890364     0.83910
O132        O  0.18476843  0.28227233  0.48601888    -0.68200
O133        O  0.32897618  0.29762143  0.52326255    -0.87490
C134        C  0.19221162  0.28019763  0.45594961     0.84740
C135        C  0.18669583  0.19576949  0.45893410     1.06310
H136        H  0.26911117  0.28718277  0.47486592     0.38110
O137        O  0.27390508  0.26847053  0.48873857    -1.10150
O138        O  0.27888639  0.24363779  0.55627236    -0.66800
Ni139      Ni  0.25073461  0.27451540  0.53047257     1.26350
O140        O  0.21616588  0.26077384  0.44662516    -0.67030
O141        O  0.27871790  0.31066626  0.54457048    -0.79320
C142        C  0.19398764  0.29293783  0.56692565     0.84120
O143        O  0.22417015  0.28255585  0.56941386    -0.66500
Ni144      Ni  0.32273611  0.26402664  0.48957814     1.27450
Ni145      Ni  0.24608005  0.23185488  0.47451621     1.26060
H146        H  0.22571122  0.21960236  0.52999769     0.38670
O147        O  0.48369737  0.71172183  0.67663883    -0.81290
O148        O  0.51769770  0.82181130  0.77243157    -0.65980
O149        O  0.52281412  0.74127873  0.72582074    -1.12580
C150        C  0.44381397  0.70129738  0.80472054     1.05600
O151        O  0.51913051  0.79653417  0.82133897    -0.79180
O152        O  0.52113583  0.73125944  0.82493397    -0.66770
Ni153      Ni  0.52430536  0.73883792  0.67897744     1.34870
C154        C  0.52941469  0.70576383  0.80892331     0.84340
O155        O  0.55285644  0.80460340  0.71796704    -0.79720
O156        O  0.56342047  0.76830366  0.67720138    -0.90000
C157        C  0.52906650  0.81936308  0.80172391     0.83910
O158        O  0.49570637  0.77438370  0.66992922    -0.68200
O159        O  0.45332312  0.72498812  0.82354244    -0.87490
C160        C  0.47965115  0.79506691  0.68700902     0.84740
C161        C  0.56697911  0.79673812  0.69041199     1.06310
H162        H  0.46353457  0.77042219  0.76752243     0.38110
O163        O  0.48511884  0.76080278  0.77305401    -1.10150
O164        O  0.51869064  0.69903325  0.77963015    -0.66800
Ni165      Ni  0.48622255  0.72038265  0.75006645     1.26350
O166        O  0.48414661  0.79910607  0.71808412    -0.67030
O167        O  0.45100562  0.69983623  0.77437821    -0.79320
C168        C  0.47034928  0.68946653  0.69487592     0.84120
O169        O  0.48323710  0.68279800  0.72271880    -0.66500
Ni170      Ni  0.48549855  0.76150450  0.82003159     1.27450
Ni171      Ni  0.51967821  0.78277175  0.74670264     1.26060
H172        H  0.54389947  0.73186304  0.73318431     0.38670
O173        O  0.25329660  0.70855111  0.08035868    -0.81290
O174        O  0.22958670  0.81722705  0.97513701    -0.65980
O175        O  0.22045086  0.74126141  0.02860624    -1.12580
C176        C  0.29746924  0.69694734  0.94920791     1.05600
O177        O  0.22203328  0.78628131  0.93070878    -0.79180
O178        O  0.22546159  0.72071490  0.92851911    -0.66770
Ni179      Ni  0.21758959  0.74072996  0.07540068     1.34870
C180        C  0.21123728  0.69964168  0.94761368     0.84340
O181        O  0.19305041  0.80454133  0.02785610    -0.79720
O182        O  0.18438399  0.77599614  0.07517203    -0.90000
C183        C  0.21456880  0.81143027  0.94787391     0.83910
O184        O  0.25177174  0.77216066  0.08189249    -0.68200
O185        O  0.29483699  0.72408934  0.93358233    -0.87490
C186        C  0.26577602  0.79540582  0.06611042     0.84740
C187        C  0.18042768  0.80134910  0.05660924     1.06310
H188        H  0.28182738  0.76552999  0.98642243     0.38110
O189        O  0.25971540  0.75653697  0.98066747    -1.10150
O190        O  0.21801346  0.69733474  0.97836171    -0.66800
Ni191      Ni  0.25406047  0.71694306  0.00467614     1.26350
O192        O  0.26038744  0.80032780  0.03492916    -0.67030
O193        O  0.28508568  0.69233572  0.97814958    -0.79320
C194        C  0.26556480  0.68687826  0.06116269     0.84120
O195        O  0.25138754  0.68094845  0.03368423    -0.66500
Ni196      Ni  0.25865331  0.75547706  0.93378492     1.27450
Ni197      Ni  0.22632875  0.78081654  0.00440923     1.26060
H198        H  0.19839257  0.73279927  0.02200676     0.38670
O199        O  0.98612965  0.55178239  0.07016015    -0.81290
O200        O  0.02857257  0.44062661  0.97223009    -0.65980
O201        O  0.02415977  0.51997152  0.02235670    -1.12580
C202        C  0.94664329  0.55649494  0.93916101     1.05600
O203        O  0.02771299  0.46834722  0.92560189    -0.79180
O204        O  0.02263684  0.53087836  0.92020441    -0.66770
Ni205      Ni  0.02248965  0.52108952  0.06949007     1.34870
C206        C  0.03398357  0.55499199  0.93649585     0.84340
O207        O  0.05705270  0.45932706  0.02710070    -0.79720
O208        O  0.05650314  0.48715209  0.07483080    -0.90000
C209        C  0.04089919  0.44610481  0.94329541     0.83910
O210        O  0.98768293  0.48965327  0.07429242    -0.68200
O211        O  0.95392864  0.53102113  0.92186409    -0.87490
C212        C  0.97738665  0.46497120  0.05822688     0.84740
C213        C  0.06487706  0.46234814  0.05730943     1.06310
H214        H  0.96759745  0.48884873  0.97965233     0.38110
O215        O  0.98903578  0.49929256  0.97361362    -1.10150
O216        O  0.02530114  0.56081947  0.96690113    -0.66800
Ni217      Ni  0.98964929  0.54034900  0.99589043     1.26350
O218        O  0.98810311  0.45805099  0.02864972    -0.67030
O219        O  0.95621439  0.56008888  0.96886822    -0.79320
C220        C  0.97371795  0.57401497  0.05218374     0.84120
O221        O  0.98604636  0.57887746  0.02319560    -0.66500
Ni222      Ni  0.98967947  0.49796179  0.92652004     1.27450
Ni223      Ni  0.02381666  0.47895170  0.99992543     1.26060
H224        H  0.04565189  0.53050535  0.01665860     0.38670
O225        O  0.23156134  0.93693436  0.79323486    -0.81290
O226        O  0.27136649  0.03540537  0.68077165    -0.65980
O227        O  0.27010009  0.98674747  0.76205862    -1.12580
C228        C  0.20154131  0.06660374  0.80774713     1.05600
O229        O  0.26743752  0.08441050  0.70422913    -0.79180
O230        O  0.28397913  0.07033977  0.76237557    -0.66770
Ni231      Ni  0.26995743  0.94008259  0.76380647     1.34870
C232        C  0.28681565  0.06391548  0.79233737     0.84340
O233        O  0.29954738  0.98046403  0.69895695    -0.79720
O234        O  0.30691365  0.93751407  0.73226718    -0.90000
C235        C  0.28017165  0.06577920  0.68234409     0.83910
O236        O  0.23863185  0.93345754  0.72970723    -0.68200
O237        O  0.21861001  0.08555485  0.78822468    -0.87490
C238        C  0.22598816  0.94985986  0.70640316     0.84740
C239        C  0.31216203  0.95269979  0.70494999     1.06310
H240        H  0.21208267  0.03113938  0.73181664     0.38110
O241        O  0.23394733  0.03487828  0.74211832    -1.10150
O242        O  0.26891889  0.04048494  0.80547044    -0.66800
Ni243      Ni  0.23501477  0.01087263  0.78350459     1.26350
O244        O  0.23268339  0.98047077  0.70132090    -0.67030
O245        O  0.20008369  0.03581141  0.80343515    -0.79320
C246        C  0.22200495  0.95320208  0.81822030     0.84120
O247        O  0.23311774  0.98261160  0.82215510    -0.66500
Ni248      Ni  0.24185028  0.08109971  0.74491455     1.27450
Ni249      Ni  0.26827594  0.00869657  0.72034978     1.26060
H250        H  0.29146900  0.99341960  0.77192120     0.38670
O251        O  0.72268171  0.83177481  0.45863706    -0.81290
O252        O  0.77969780  0.74454900  0.57117201    -0.65980
O253        O  0.77074887  0.79134734  0.49002571    -1.12580
C254        C  0.69702459  0.70298134  0.45693550     1.05600
O255        O  0.78096020  0.69585606  0.54640353    -0.79180
O256        O  0.77678443  0.68834901  0.48269496    -0.66770
Ni257      Ni  0.76077489  0.83733796  0.48893793     1.34870
C258        C  0.78549196  0.70321934  0.45646292     0.84340
O259        O  0.80425232  0.80190908  0.55042127    -0.79720
O260        O  0.79703001  0.84771902  0.52030105    -0.90000
C261        C  0.79250759  0.71622821  0.56767007     0.83910
O262        O  0.72812219  0.83863941  0.52423789    -0.68200
O263        O  0.70752273  0.68683643  0.48222542    -0.87490
C264        C  0.72081300  0.82050180  0.54897424     0.84740
C265        C  0.80991669  0.83246130  0.54492572     1.06310
H266        H  0.71855010  0.74473894  0.52266714     0.38110
O267        O  0.74033470  0.74025398  0.51246210    -1.10150
O268        O  0.77490733  0.73256203  0.44927178    -0.66800
Ni269      Ni  0.73892594  0.76104400  0.47030143     1.26350
O270        O  0.73555444  0.79313222  0.55443611    -0.67030
O271        O  0.70558642  0.73259929  0.45213356    -0.79320
C272        C  0.71601950  0.81187944  0.43501778     0.84120
O273        O  0.73418297  0.78654171  0.43077851    -0.66500
Ni274      Ni  0.74336644  0.69387687  0.51548819     1.27450
Ni275      Ni  0.77310607  0.77016773  0.53201492     1.26060
H276        H  0.79253065  0.78871510  0.47908538     0.38670
O277        O  0.01035419  0.83577476  0.30109169    -0.81290
O278        O  0.96235379  0.73707232  0.18783615    -0.65980
O279        O  0.96999457  0.78845482  0.26644454    -1.12580
C280        C  0.04635956  0.70455261  0.30176766     1.05600
O281        O  0.96392187  0.68895815  0.21325662    -0.79180
O282        O  0.96945610  0.68544210  0.27649070    -0.66770
Ni283      Ni  0.98128279  0.83424519  0.26304883     1.34870
C284        C  0.95759264  0.70140276  0.30057225     0.84340
O285        O  0.93299593  0.79142641  0.20757501    -0.79720
O286        O  0.95549031  0.83959511  0.22212081    -0.90000
C287        C  0.95121570  0.70786798  0.19172978     0.83910
O288        O  0.02154700  0.82318695  0.24094480    -0.68200
O289        O  0.03907040  0.68787309  0.27572389    -0.87490
C290        C  0.02124921  0.81641763  0.21080921     0.84740
C291        C  0.93678261  0.82214990  0.20304047     1.06310
H292        H  0.02428692  0.74508469  0.23394452     0.38110
O293        O  0.00311214  0.73872532  0.24470892    -1.10150
O294        O  0.96628658  0.73171444  0.30660221    -0.66800
Ni295      Ni  0.00296921  0.76041852  0.28653596     1.26350
O296        O  0.00181443  0.79290561  0.20019831    -0.67030
O297        O  0.03525806  0.73303511  0.30678750    -0.79320
C298        C  0.02075596  0.81545043  0.32239118     0.84120
O299        O  0.00730015  0.78679646  0.32535700    -0.66500
Ni300      Ni  0.00225029  0.69165583  0.24321403     1.27450
Ni301      Ni  0.96792181  0.76475429  0.22542196     1.26060
H302        H  0.94838126  0.78607204  0.27790631     0.38670
O303        O  0.56588664  0.96770591  0.03378346    -0.81290
O304        O  0.46704461  0.03059322  0.93538961    -0.65980
O305        O  0.52250651  0.01509746  0.01059158    -1.12580
C306        C  0.43589821  0.94640934  0.05154989     1.05600
O307        O  0.41811908  0.02575986  0.96229323    -0.79180
O308        O  0.42927953  0.03086463  0.02147976    -0.66770
Ni309      Ni  0.56965045  0.00529526  0.00590692     1.34870
C310        C  0.43997808  0.03074911  0.05043185     0.84340
O311        O  0.52748466  0.05200327  0.95311958    -0.79720
O312        O  0.57780266  0.04034541  0.97491767    -0.90000
C313        C  0.43685580  0.04028315  0.94115418     0.83910
O314        O  0.56792076  0.97515166  0.97050907    -0.68200
O315        O  0.41612923  0.96386453  0.03407186    -0.87490
C316        C  0.54766358  0.97040720  0.94683981     0.84740
C317        C  0.55965244  0.05513556  0.95376202     1.06310
H318        H  0.47033107  0.96622144  0.97835699     0.38110
O319        O  0.46800653  0.98631627  0.99084267    -1.10150
O320        O  0.46660694  0.01398444  0.05784514    -0.66800
Ni321      Ni  0.49425396  0.98223609  0.03078048     1.26350
O322        O  0.51950575  0.98603230  0.94399189    -0.67030
O323        O  0.46782650  0.94727311  0.04840739    -0.79320
C324        C  0.55151746  0.96257403  0.06143213     0.84120
O325        O  0.52371061  0.97667785  0.06805629    -0.66500
Ni326      Ni  0.42047424  0.99355089  0.99621866     1.27450
Ni327      Ni  0.49687610  0.02013390  0.97134706     1.26060
H328        H  0.52079823  0.03509795  0.02334844     0.38670
C329        C  0.25590059  0.92858250  0.31512545     0.02730
C330        C  0.27004943  0.91599772  0.28619904    -0.13420
C331        C  0.29447424  0.93417637  0.26866111     0.00230
C332        C  0.30538961  0.96528947  0.28061794    -0.11940
C333        C  0.29508351  0.97679370  0.31233947     0.02730
C334        C  0.27012773  0.95744104  0.32883459    -0.11360
H335        H  0.26223241  0.89192201  0.27733482     0.08320
H336        H  0.32355441  0.97949044  0.26597921     0.05850
H337        H  0.26264391  0.96253341  0.35356028     0.05700
C338        C  0.42981541  0.80231876  0.26133102     0.02730
C339        C  0.42018803  0.77170069  0.27476997    -0.13420
C340        C  0.43392142  0.76038556  0.30452028     0.00230
C341        C  0.46095405  0.77858453  0.31920388    -0.11940
C342        C  0.47287415  0.80863743  0.30525443     0.02730
C343        C  0.45513204  0.82115977  0.27787066    -0.11360
H344        H  0.40094919  0.75678510  0.26269249     0.08320
H345        H  0.47219378  0.76976667  0.34191055     0.05850
H346        H  0.46248569  0.84494333  0.26803251     0.05700
C347        C  0.35421653  0.65752114  0.37934375    -0.02880
C348        C  0.43922244  0.98150950  0.43843975     0.02730
C349        C  0.42882550  0.96956632  0.47016716    -0.13420
C350        C  0.44779249  0.94556160  0.48742827     0.00230
C351        C  0.47868012  0.93567735  0.47302720    -0.11940
C352        C  0.48664058  0.94266675  0.43992134     0.02730
C353        C  0.46653988  0.96524939  0.42247854    -0.11360
H354        H  0.40600480  0.97917227  0.48143068     0.08320
H355        H  0.49610548  0.92081514  0.48704223     0.05850
H356        H  0.47292267  0.97092697  0.39692156     0.05700
C357        C  0.25957240  0.80283465  0.45951740     0.02730
C358        C  0.27180998  0.77140437  0.45200363    -0.13420
C359        C  0.29977525  0.75801218  0.46876653     0.00230
C360        C  0.31380353  0.77663713  0.49490951    -0.11940
C361        C  0.30397685  0.80938158  0.50057504     0.02730
C362        C  0.27679435  0.82234878  0.48275589    -0.11360
H363        H  0.25980261  0.75778236  0.43209990     0.08320
H364        H  0.33270808  0.76614421  0.51089606     0.05850
H365        H  0.26865498  0.84725686  0.48743310     0.05700
C366        C  0.38800453  0.87522801  0.60400921    -0.02880
C367        C  0.14494912  0.86486513  0.39337671    -0.02880
C368        C  0.36210255  0.87067829  0.15362760    -0.02880
C369        C  0.59612282  0.86827834  0.37057987    -0.02880
C370        C  0.36603558  0.09547088  0.37230385    -0.02880
O371        O  0.76745489  0.04351213  0.17103115    -0.81290
O372        O  0.72524695  0.93267781  0.27576448    -0.65980
O373        O  0.72875209  0.00736021  0.21795543    -1.12580
C374        C  0.80181408  0.05154801  0.30304915     1.05600
O375        O  0.72079839  0.96491075  0.31976923    -0.79180
O376        O  0.72822258  0.02901908  0.32159527    -0.66770
Ni377      Ni  0.74172165  0.00270406  0.17262348     1.34870
C378        C  0.71253070  0.04771205  0.30193153     0.84340
O379        O  0.69758406  0.94544828  0.21820457    -0.79720
O380        O  0.71762395  0.95973853  0.16816553    -0.90000
C381        C  0.71180772  0.93944907  0.30380217     0.83910
O382        O  0.78276154  0.98529707  0.18778877    -0.68200
O383        O  0.79726000  0.02476100  0.31904212    -0.87490
C384        C  0.78380300  0.95558186  0.19472814     0.84740
C385        C  0.69979414  0.94076823  0.18729262     1.06310
H386        H  0.78431779  0.98378392  0.26503204     0.38110
O387        O  0.76215158  0.99255795  0.27013737    -1.10150
O388        O  0.71950266  0.04922436  0.27083752    -0.66800
Ni389      Ni  0.75885619  0.03253133  0.24613162     1.26350
O390        O  0.76512777  0.94466593  0.21880007    -0.67030
O391        O  0.78832085  0.05732155  0.27505078    -0.79320
C392        C  0.77268257  0.06785583  0.19012894     0.84120
O393        O  0.75834571  0.07011111  0.21833776    -0.66500
Ni394      Ni  0.75951040  0.99406037  0.31722480     1.27450
Ni395      Ni  0.72944570  0.96825837  0.24469309     1.26060
H396        H  0.70612367  0.01637487  0.21878507     0.38670
O397        O  0.82748418  0.29537839  0.02097507    -0.81290
O398        O  0.72082824  0.19155553  0.97559380    -0.65980
O399        O  0.77628877  0.26889051  0.98030546    -1.12580
C400        C  0.69306567  0.31160213  0.05092702     1.05600
O401        O  0.67226025  0.21869865  0.97662224    -0.79180
O402        O  0.67840139  0.27991622  0.97089984    -0.66770
Ni403      Ni  0.82460364  0.26756006  0.98254104     1.34870
C404        C  0.69349273  0.30710854  0.96764968     0.84340
O405        O  0.78192707  0.20580321  0.95231541    -0.79720
O406        O  0.82675914  0.23876112  0.94508593    -0.90000
C407        C  0.69099311  0.19662553  0.96444779     0.83910
O408        O  0.82720333  0.23090255  0.01156193    -0.68200
O409        O  0.67220755  0.29145801  0.03738249    -0.87490
C410        C  0.80611589  0.21129533  0.02564427     0.84740
C411        C  0.81193690  0.21101843  0.94154721     1.06310
H412        H  0.72607810  0.23988320  0.03368584     0.38110
O413        O  0.72318480  0.25068012  0.01258205    -1.10150
O414        O  0.72214275  0.31403340  0.98205619    -0.66800
Ni415      Ni  0.75060671  0.28977305  0.01439654     1.26350
O416        O  0.77476777  0.20867742  0.01736553    -0.67030
O417        O  0.72503042  0.30891954  0.04890124    -0.79320
C418        C  0.81175446  0.32067703  0.03064651     0.84120
O419        O  0.78229138  0.32652125  0.01883598    -0.66500
Ni420      Ni  0.67519224  0.25340598  0.00832605     1.27450
Ni421      Ni  0.75104577  0.22861274  0.98036454     1.26060
H422        H  0.77126651  0.27982345  0.95967950     0.38670
C423        C  0.44611301  0.48781792  0.94649931     0.02730
C424        C  0.43459842  0.46892514  0.97383848    -0.13420
C425        C  0.45285822  0.44109448  0.98526465     0.00230
C426        C  0.48023656  0.43121329  0.96463383    -0.11940
C427        C  0.49405313  0.45151990  0.93960237     0.02730
C428        C  0.47675556  0.47978541  0.93076523    -0.11360
H429        H  0.41053731  0.47551716  0.98485067     0.08320
H430        H  0.49011528  0.40697777  0.96542012     0.05850
H431        H  0.48622774  0.49478547  0.91037521     0.05700
C432        C  0.29185190  0.49575677  0.79483381     0.02730
C433        C  0.31439761  0.47845504  0.77375139    -0.13420
C434        C  0.30393647  0.44969336  0.75694550     0.00230
C435        C  0.27254216  0.43469695  0.76630531    -0.11940
C436        C  0.25076360  0.44997858  0.78918858     0.02730
C437        C  0.25863425  0.48246089  0.79886545    -0.11360
H438        H  0.34031160  0.48738642  0.77017303     0.08320
H439        H  0.26581936  0.41058060  0.75689685     0.05850
H440        H  0.23905457  0.49590886  0.81142091     0.05700
C441        C  0.37101142  0.59342582  0.87513604    -0.02880
C442        C  0.45510709  0.26277444  0.80758348     0.02730
C443        C  0.43820622  0.28139754  0.78343258    -0.13420
C444        C  0.45395725  0.30917255  0.76870290     0.00230
C445        C  0.48507679  0.32030257  0.78273055    -0.11940
C446        C  0.50305031  0.30197467  0.80709977     0.02730
C447        C  0.48785690  0.27214074  0.81749545    -0.11360
H448        H  0.41273992  0.27400590  0.77602259     0.08320
H449        H  0.49517997  0.34357568  0.77429605     0.05850
H450        H  0.50088275  0.25547407  0.83337058     0.05700
C451        C  0.60889195  0.38237167  0.87399574    -0.02880
C452        C  0.38807980  0.38050919  0.65374496    -0.02880
C453        C  0.37351862  0.15375217  0.87159643    -0.02880
C454        C  0.15431672  0.37424788  0.87806508    -0.02880
C455        C  0.29976967  0.25150106  0.95308116     0.02730
C456        C  0.27716331  0.27230922  0.93629347    -0.13420
C457        C  0.26412030  0.30080807  0.95085025     0.00230
C458        C  0.27982845  0.31329096  0.97965232    -0.11940
C459        C  0.30647026  0.29606154  0.99509089     0.02730
C460        C  0.31464775  0.26466616  0.98240332    -0.11360
H461        H  0.27015363  0.26774720  0.91100777     0.08320
H462        H  0.27198730  0.33681767  0.98935833     0.05850
H463        H  0.33392750  0.25146842  0.99519316     0.05700
C464        C  0.38543026  0.36752196  0.09999837    -0.02880
C465        C  0.69617987  0.52666858  0.20070069     0.02730
C466        C  0.68385625  0.54199460  0.22963746    -0.13420
C467        C  0.69882146  0.57130916  0.24295485     0.00230
C468        C  0.72465595  0.58661010  0.22269106    -0.11940
C469        C  0.73888408  0.57086040  0.19434298     0.02730
C470        C  0.72526500  0.54010859  0.18534693    -0.11360
H471        H  0.66176979  0.53075092  0.24122410     0.08320
H472        H  0.73400549  0.61084503  0.22771661     0.05850
H473        H  0.73692183  0.52660448  0.16544252     0.05700
C474        C  0.53516735  0.73390548  0.19535417     0.02730
C475        C  0.54498740  0.72526391  0.22805758    -0.13420
C476        C  0.53125920  0.69729032  0.24488254     0.00230
C477        C  0.50465219  0.67959828  0.22980782    -0.11940
C478        C  0.49283633  0.68899623  0.19852426     0.02730
C479        C  0.51057160  0.71335173  0.18054841    -0.11360
H480        H  0.56511919  0.73885994  0.23987297     0.08320
H481        H  0.49438997  0.65760155  0.24157385     0.05850
H482        H  0.50556064  0.71513955  0.15436007     0.05700
C483        C  0.61573141  0.63456223  0.35041838    -0.02880
C484        C  0.55370019  0.56352889  0.00451353     0.02730
C485        C  0.56398448  0.53315742  0.01649003    -0.13420
C486        C  0.54873768  0.51955301  0.04483046     0.00230
C487        C  0.51854821  0.53349306  0.05710699    -0.11940
C488        C  0.50741816  0.56472936  0.04680349     0.02730
C489        C  0.52817595  0.58059577  0.02223750    -0.11360
H490        H  0.58608487  0.52155147  0.00558368     0.08320
H491        H  0.50434247  0.51991338  0.07532329     0.05850
H492        H  0.52585581  0.60634301  0.01706414     0.05700
C493        C  0.62678481  0.41938619  0.12227794    -0.02880
C494        C  0.38749055  0.62541220  0.11506802    -0.02880
C495        C  0.69959632  0.70879244  0.99503580     0.02730
C496        C  0.69019736  0.73934039  0.00866110    -0.13420
C497        C  0.69069011  0.74525459  0.04346859     0.00230
C498        C  0.70853756  0.72148437  0.06230695    -0.11940
C499        C  0.72850278  0.69719223  0.04688913     0.02730
C500        C  0.72149096  0.68933104  0.01368978    -0.11360
H501        H  0.68265102  0.75768720  0.99132392     0.08320
H502        H  0.70753711  0.72101302  0.08885401     0.05850
H503        H  0.73275496  0.66786572  0.00264586     0.05700
C504        C  0.62618946  0.63201122  0.89282377    -0.02880
C505        C  0.61117875  0.84366695  0.12251034    -0.02880
C506        C  0.84917323  0.63331266  0.11194134    -0.02880
O507        O  0.77023868  0.54483340  0.67137597    -0.81290
O508        O  0.73893012  0.44099597  0.77749358    -0.65980
O509        O  0.73223951  0.51494227  0.72170412    -1.12580
C510        C  0.81128943  0.56431029  0.79735330     1.05600
O511        O  0.73602744  0.47119732  0.82284554    -0.79180
O512        O  0.73799841  0.53514265  0.82241174    -0.66770
Ni513      Ni  0.73419900  0.51226069  0.67460364     1.34870
C514        C  0.72314895  0.55654945  0.80542948     0.84340
O515        O  0.70715719  0.45014443  0.72101061    -0.79720
O516        O  0.69992296  0.47766088  0.67346259    -0.90000
C517        C  0.72522610  0.44723469  0.80530490     0.83910
O518        O  0.76819613  0.47976073  0.67151670    -0.68200
O519        O  0.80644877  0.53940479  0.81655143    -0.87490
C520        C  0.78193865  0.45981174  0.69135963     0.84740
C521        C  0.69632347  0.45187006  0.69135474     1.06310
H522        H  0.79246205  0.49456380  0.76469207     0.38110
O523        O  0.77024545  0.50259628  0.77078366    -1.10150
O524        O  0.72948022  0.56047173  0.77417520    -0.66800
Ni525      Ni  0.76518532  0.54116883  0.74531997     1.26350
O526        O  0.77397496  0.45732264  0.72193435    -0.67030
O527        O  0.79817081  0.56667641  0.76880512    -0.79320
C528        C  0.77891819  0.57009579  0.68789182     0.84120
O529        O  0.76315911  0.57638955  0.71474952    -0.66500
Ni530      Ni  0.77211856  0.50399107  0.81749314     1.27450
Ni531      Ni  0.73724044  0.47638527  0.74724549     1.26060
H532        H  0.70995561  0.52338097  0.72693832     0.38670
O533        O  0.97071459  0.04566042  0.56729019    -0.81290
O534        O  0.02182514  0.93861472  0.47484424    -0.65980
O535        O  0.01580846  0.01780749  0.52383743    -1.12580
C536        C  0.94582996  0.05185123  0.43251330     1.05600
O537        O  0.03064378  0.96845866  0.42992619    -0.79180
O538        O  0.02408946  0.03219290  0.42257385    -0.66770
Ni539      Ni  0.01095865  0.01962389  0.57013323     1.34870
C540        C  0.03551483  0.05451912  0.44164731     0.84340
O541        O  0.04853225  0.95729250  0.53354160    -0.79720
O542        O  0.05067296  0.99277324  0.57616397    -0.90000
C543        C  0.03739608  0.94351738  0.44740714     0.83910
O544        O  0.98199395  0.98213128  0.57592737    -0.68200
O545        O  0.95507299  0.02589480  0.41743259    -0.87490
C546        C  0.96971912  0.95999427  0.55719477     0.84740
C547        C  0.05934320  0.96594279  0.56218399     1.06310
H548        H  0.96384925  0.98750331  0.47594832     0.38110
O549        O  0.98595158  0.99772491  0.47229762    -1.10150
O550        O  0.02365350  0.05919702  0.47099109    -0.66800
Ni551      Ni  0.98455448  0.03875354  0.49422803     1.26350
O552        O  0.97911720  0.95637488  0.52683216    -0.67030
O553        O  0.95533541  0.05901860  0.46192672    -0.79320
C554        C  0.96437813  0.07123638  0.55036078     0.84120
O555        O  0.97868260  0.07655931  0.52217979    -0.66500
Ni556      Ni  0.99240107  0.99655736  0.42581538     1.27450
Ni557      Ni  0.01740990  0.97683858  0.50207513     1.26060
H558        H  0.03792828  0.02787392  0.51990037     0.38670
C559        C  0.68842519  0.03044118  0.68273446     0.02730
C560        C  0.67597812  0.04393124  0.71261775    -0.13420
C561        C  0.69507825  0.06769330  0.73009533     0.00230
C562        C  0.72675551  0.07831586  0.71755853    -0.11940
C563        C  0.73808855  0.06899792  0.68583815     0.02730
C564        C  0.71852196  0.04479539  0.66872996    -0.11360
H565        H  0.65149146  0.03586180  0.72248022     0.08320
H566        H  0.74169488  0.09580246  0.73184076     0.05850
H567        H  0.72651529  0.03711025  0.64434457     0.05700
C568        C  0.54827144  0.19461734  0.74043640     0.02730
C569        C  0.56351937  0.22237217  0.72562647    -0.13420
C570        C  0.55014744  0.23681977  0.69720135     0.00230
C571        C  0.52035441  0.22296073  0.68354021    -0.11940
C572        C  0.50401011  0.19539336  0.69831576     0.02730
C573        C  0.51799809  0.18156186  0.72679623    -0.11360
H574        H  0.58688167  0.23237672  0.73584224     0.08320
H575        H  0.51083501  0.23239119  0.66030828     0.05850
H576        H  0.50611829  0.15973304  0.73740314     0.05700
C577        C  0.54541227  0.06225816  0.50041567     0.02730
C578        C  0.52074989  0.07599848  0.52120578    -0.13420
C579        C  0.50448062  0.05705516  0.54568333     0.00230
C580        C  0.51853772  0.02646503  0.55394643    -0.11940
C581        C  0.54538918  0.01169860  0.53534654     0.02730
C582        C  0.55570880  0.02967193  0.50675348    -0.11360
H583        H  0.51391907  0.10148875  0.51865786     0.08320
H584        H  0.50848116  0.01534634  0.57591402     0.05850
H585        H  0.57269808  0.02001056  0.48900200     0.05700
C586        C  0.69122470  0.20197540  0.50119722     0.02730
C587        C  0.71988837  0.18819884  0.51677080    -0.13420
C588        C  0.73383646  0.20216730  0.54587614     0.00230
C589        C  0.71784977  0.22989332  0.55960578    -0.11940
C590        C  0.69027623  0.24468615  0.54362768     0.02730
C591        C  0.67765915  0.23096198  0.51426823    -0.11360
H592        H  0.73109054  0.16627250  0.50646953     0.08320
H593        H  0.72659556  0.23979595  0.58302909     0.05850
H594        H  0.65597807  0.24209028  0.50242814     0.05700
C595        C  0.62206164  0.12990969  0.38924635    -0.02880
C596        C  0.39762913  0.13298406  0.61384478    -0.02880
C597        C  0.62225691  0.34521683  0.62615061    -0.02880
C598        C  0.62508832  0.91166249  0.61341595    -0.02880
C599        C  0.85291179  0.14316277  0.61820710    -0.02880
C600        C  0.62966845  0.13190739  0.84647204    -0.02880
C601        C  0.00969137  0.71151642  0.71409703     0.02730
C602        C  0.02462726  0.69799261  0.74280620    -0.13420
C603        C  0.05751616  0.70766793  0.75266073     0.00230
C604        C  0.07480049  0.73245007  0.73495260    -0.11940
C605        C  0.05838525  0.75048905  0.71027838     0.02730
C606        C  0.02588695  0.73930582  0.69973193    -0.11360
H607        H  0.01198404  0.67806790  0.75604510     0.08320
H608        H  0.10137136  0.73734116  0.74038285     0.05850
H609        H  0.01398107  0.75138029  0.67907445     0.05700
C610        C  0.90002053  0.64235789  0.63726295    -0.02880
C611        C  0.18158307  0.73187216  0.57306698     0.02730
C612        C  0.16600449  0.71252160  0.54797296    -0.13420
C613        C  0.18455361  0.68970994  0.52918304     0.00230
C614        C  0.21698255  0.68086479  0.54008249    -0.11940
C615        C  0.23163025  0.69541744  0.56833873     0.02730
C616        C  0.21488448  0.72246334  0.58295010    -0.11360
H617        H  0.13928793  0.71401665  0.54283651     0.08320
H618        H  0.23063214  0.66190480  0.52690207     0.05850
H619        H  0.22758286  0.73569549  0.60264799     0.05700
C620        C  0.00476489  0.56240436  0.56806481     0.02730
C621        C  0.02549848  0.53829489  0.58248338    -0.13420
C622        C  0.05132630  0.52241255  0.56380105     0.00230
C623        C  0.05826858  0.53479046  0.53144824    -0.11940
C624        C  0.04087195  0.56210942  0.51869399     0.02730
C625        C  0.01300357  0.57421812  0.53637845    -0.11360
H626        H  0.02192132  0.53292978  0.60849376     0.08320
H627        H  0.07842997  0.52431004  0.51663787     0.05850
H628        H  0.99927026  0.59493359  0.52651878     0.05700
C629        C  0.20297606  0.50951713  0.70392018     0.02730
C630        C  0.22226014  0.52915793  0.68105279    -0.13420
C631        C  0.24166301  0.55744159  0.69098465     0.00230
C632        C  0.23399183  0.56935171  0.72323671    -0.11940
C633        C  0.21041971  0.55319511  0.74454016     0.02730
C634        C  0.19891796  0.52147889  0.73617733    -0.11360
H635        H  0.22027260  0.52257405  0.65541031     0.08320
H636        H  0.24584054  0.59157488  0.73199334     0.05850
H637        H  0.18460373  0.50745965  0.75439816     0.05700
C638        C  0.12575234  0.40914791  0.62488922    -0.02880
C639        C  0.11622937  0.63187757  0.41018526    -0.02880
C640        C  0.13239156  0.62497818  0.84905833    -0.02880
C641        C  0.35615791  0.63013484  0.61992312    -0.02880
C642        C  0.13013763  0.85825170  0.63673008    -0.02880
C643        C  0.80353495  0.45792058  0.25502791     0.02730
C644        C  0.77165512  0.44481761  0.26548108    -0.13420
C645        C  0.75581565  0.45570579  0.29457353     0.00230
C646        C  0.77093976  0.48164644  0.31258178    -0.11940
C647        C  0.80239668  0.49580230  0.30273308     0.02730
C648        C  0.81861357  0.48365698  0.27388520    -0.11360
H649        H  0.76012675  0.42449445  0.25207413     0.08320
H650        H  0.75877266  0.48996786  0.33521399     0.05850
H651        H  0.84336447  0.49358114  0.26672094     0.05700
C652        C  0.86992482  0.60486947  0.37913451    -0.02880
C653        C  0.65217925  0.38266793  0.37481011    -0.02880
C654        C  0.81116592  0.27404836  0.44339830     0.02730
C655        C  0.78284501  0.29005159  0.42975100    -0.13420
C656        C  0.76790217  0.31807185  0.44462556     0.00230
C657        C  0.78766591  0.33281928  0.46947708    -0.11940
C658        C  0.81288316  0.31590475  0.48629001     0.02730
C659        C  0.82464675  0.28618728  0.47322411    -0.11360
H660        H  0.77447731  0.28140759  0.40607924     0.08320
H661        H  0.78651173  0.35838711  0.47475378     0.05850
H662        H  0.84577725  0.27404096  0.48491616     0.05700
C663        C  0.87308352  0.39001675  0.59996814    -0.02880
C664        C  0.98377248  0.44497955  0.44231210     0.02730
C665        C  0.97417137  0.47516442  0.42756946    -0.13420
C666        C  0.94636226  0.49355537  0.44055502     0.00230
C667        C  0.93026318  0.48186712  0.46950355    -0.11940
C668        C  0.93897180  0.45167918  0.48359534     0.02730
C669        C  0.96409439  0.43263519  0.46854871    -0.11360
H670        H  0.98843536  0.48432256  0.40633115     0.08320
H671        H  0.91027766  0.49610154  0.48096259     0.05850
H672        H  0.97034312  0.40907359  0.47928917     0.05700
C673        C  0.98455215  0.32850950  0.30985309     0.02730
C674        C  0.97619442  0.33711354  0.27721420    -0.13420
C675        C  0.95052111  0.31984179  0.25993245     0.00230
C676        C  0.93813729  0.29006861  0.27367034    -0.11940
C677        C  0.94277512  0.28166421  0.30758237     0.02730
C678        C  0.96467750  0.30341603  0.32575632    -0.11360
H679        H  0.98915102  0.35777216  0.26540963     0.08320
H680        H  0.92455314  0.27379629  0.25744735     0.05850
H681        H  0.96749909  0.30112375  0.35207289     0.05700
C682        C  0.10462886  0.37883045  0.38602032    -0.02880
C683        C  0.88055888  0.38870872  0.14690063    -0.02880
C684        C  0.87525266  0.16251597  0.36794439    -0.02880
O685        O  0.02776507  0.32723376  0.78676300    -0.81290
O686        O  0.98861497  0.23588267  0.67677035    -0.65980
O687        O  0.98556177  0.27973079  0.75895659    -1.12580
C688        C  0.05730559  0.19916078  0.80046100     1.05600
O689        O  0.98655456  0.18640090  0.70003882    -0.79180
O690        O  0.98032812  0.18303778  0.76328785    -0.66770
Ni691      Ni  0.98606859  0.32586767  0.76231027     1.34870
C692        C  0.97221999  0.19636733  0.79026170     0.84340
O693        O  0.95862573  0.29077641  0.69654171    -0.79720
O694        O  0.94537570  0.32675738  0.73657180    -0.90000
C695        C  0.97526961  0.20717644  0.67918655     0.83910
O696        O  0.01241665  0.33637046  0.72371233    -0.68200
O697        O  0.04817338  0.18103215  0.77584993    -0.87490
C698        C  0.03164434  0.31979292  0.70498873     0.84740
C699        C  0.94278429  0.31598781  0.70701534     1.06310
H700        H  0.04384136  0.23799905  0.72938173     0.38110
O701        O  0.02158330  0.23272044  0.73849598    -1.10150
O702        O  0.98434123  0.22453429  0.79985277    -0.66800
Ni703      Ni  0.01938404  0.25465192  0.77998404     1.26350
O704        O  0.02752538  0.28858117  0.70211300    -0.67030
O705        O  0.05260191  0.22965935  0.80131509    -0.79320
C706        C  0.03689916  0.30954377  0.81088188     0.84120
O707        O  0.02142823  0.28251275  0.81760987    -0.66500
Ni708      Ni  0.01895689  0.18636502  0.73648662     1.27450
Ni709      Ni  0.98912038  0.26053091  0.71694628     1.26060
H710        H  0.96377348  0.27265542  0.76798078     0.38670
C711        C  0.00113588  0.06757874  0.07457032     0.02730
C712        C  0.01396370  0.07909959  0.04361303    -0.13420
C713        C  0.04299566  0.06498884  0.02850538     0.00230
C714        C  0.05559219  0.03612268  0.04294980    -0.11940
C715        C  0.04528375  0.02489851  0.07490791     0.02730
C716        C  0.01961046  0.04309914  0.09102286    -0.11360
H717        H  0.00146318  0.09927397  0.03137644     0.08320
H718        H  0.07374518  0.02245817  0.02878668     0.05850
H719        H  0.01334364  0.03818566  0.11624874     0.05700
C720        C  0.20562333  0.24300022  0.06219441     0.02730
C721        C  0.23300232  0.22712566  0.07769031    -0.13420
C722        C  0.24144674  0.19482479  0.06896477     0.00230
C723        C  0.22192165  0.17861977  0.04444782    -0.11940
C724        C  0.19806732  0.19561565  0.02499582     0.02730
C725        C  0.19115820  0.22828453  0.03404355    -0.11360
H726        H  0.24592490  0.23889525  0.09825385     0.08320
H727        H  0.22605319  0.15274261  0.04013978     0.05850
H728        H  0.17338463  0.24214615  0.01984470     0.05700
C729        C  0.00815923  0.19607105  0.18678536     0.02730
C730        C  0.02305829  0.22564863  0.17551195    -0.13420
C731        C  0.05372728  0.23753110  0.18904280     0.00230
C732        C  0.06926377  0.21925175  0.21433126    -0.11940
C733        C  0.05426343  0.18952162  0.22605876     0.02730
C734        C  0.02352877  0.17849057  0.21215157    -0.11360
H735        H  0.01089797  0.23929176  0.15589507     0.08320
H736        H  0.09262280  0.22846489  0.22536425     0.05850
H737        H  0.01026251  0.15715935  0.22218581     0.05700
C738        C  0.19205463  0.05071629  0.25122804     0.02730
C739        C  0.22640530  0.05718384  0.24324440    -0.13420
C740        C  0.24094232  0.04487010  0.21385723     0.00230
C741        C  0.22251648  0.01987092  0.19688627    -0.11940
C742        C  0.18832044  0.01113981  0.20586534     0.02730
C743        C  0.17301209  0.02876954  0.23176514    -0.11360
H744        H  0.24057647  0.07487111  0.25798265     0.08320
H745        H  0.23419755  0.00828924  0.17563982     0.05850
H746        H  0.14586000  0.02662165  0.23620161     0.05700
C747        C  0.11568889  0.13471688  0.34547930    -0.02880
C748        C  0.12999246  0.35157359  0.12958874    -0.02880
C749        C  0.11209733  0.90620327  0.13023839    -0.02880
C750        C  0.12086504  0.13088489  0.91379334    -0.02880
C751        C  0.88455790  0.13914307  0.12579207    -0.02880
C752        C  0.34991699  0.11606843  0.13595290    -0.02880
C753        C  0.17876394  0.06800035  0.30987813    -0.02240
C754        C  0.17457466  0.07205847  0.27568091     0.07440
C755        C  0.15704886  0.09906946  0.26416191    -0.02360
C756        C  0.14550052  0.12267944  0.28654168    -0.02360
C757        C  0.14260086  0.11596125  0.32186423     0.07570
C758        C  0.16512333  0.09088506  0.33303603    -0.02560
Br759      Br  0.17746894  0.08577455  0.37905952    -0.01100
Br760      Br  0.19484946  0.02612797  0.32378180    -0.01180
Br761      Br  0.14855717  0.16604265  0.26706359    -0.01140
Br762      Br  0.14987579  0.10460916  0.21689005    -0.01120
C763        C  0.14085862  0.93018511  0.18555154    -0.02240
C764        C  0.13788274  0.93049977  0.15016278     0.07440
C765        C  0.15790254  0.95639837  0.13438458    -0.02360
C766        C  0.16996267  0.98410132  0.15222434    -0.02360
C767        C  0.16841031  0.98502145  0.18699009     0.07570
C768        C  0.15129047  0.95863625  0.20325461    -0.02560
Br769      Br  0.13571192  0.96247568  0.24866021    -0.01100
Br770      Br  0.13879747  0.88996414  0.21121185    -0.01180
Br771      Br  0.18558141  0.02282477  0.12808382    -0.01140
Br772      Br  0.18263954  0.95096706  0.09318574    -0.01120
C773        C  0.27610085  0.09583567  0.19822674    -0.02240
C774        C  0.27266979  0.06134776  0.19898425     0.07440
C775        C  0.29959675  0.04351774  0.18467947    -0.02360
C776        C  0.32485924  0.05908001  0.16401493    -0.02360
C777        C  0.32804509  0.09444710  0.16250082     0.07570
C778        C  0.30603566  0.11095170  0.18572533    -0.02560
Br779      Br  0.31610702  0.15227400  0.20645079    -0.01100
Br780      Br  0.23858257  0.12429929  0.20932307    -0.01180
Br781      Br  0.35276367  0.02952049  0.13921384    -0.01140
Br782      Br  0.30345444  0.99811495  0.19555384    -0.01120
C783        C  0.09012883  0.29886914  0.12720751    -0.02240
C784        C  0.10320873  0.32622056  0.14694676     0.07440
C785        C  0.09544734  0.32327449  0.18215655    -0.02360
C786        C  0.07498346  0.29662027  0.19419575    -0.02360
C787        C  0.07006451  0.26813094  0.17517395     0.07570
C788        C  0.07973058  0.26912128  0.14193700    -0.02560
Br789      Br  0.08175845  0.22888468  0.11666084    -0.01100
Br790      Br  0.08426610  0.29910962  0.07961599    -0.01180
Br791      Br  0.05325922  0.29901083  0.23689858    -0.01140
Br792      Br  0.11683926  0.34752200  0.21792989    -0.01120
C793        C  0.06843708  0.19480575  0.28484341    -0.02240
C794        C  0.06653028  0.17441555  0.25743741     0.07440
C795        C  0.06573495  0.14048825  0.26422608    -0.02360
C796        C  0.07168286  0.12976154  0.29706875    -0.02360
C797        C  0.09006809  0.15076023  0.31988578     0.07570
C798        C  0.08803273  0.18516920  0.31207215    -0.02560
Br799      Br  0.12145809  0.21850901  0.32260545    -0.01100
Br800      Br  0.02340677  0.20857519  0.29347225    -0.01180
Br801      Br  0.04939058  0.08932663  0.30923836    -0.01140
Br802      Br  0.05755084  0.10858199  0.22970601    -0.01120
C803        C  0.97651998  0.17324868  0.13880819    -0.02240
C804        C  0.97631207  0.18335287  0.17185076     0.07440
C805        C  0.94551707  0.18349067  0.18970159    -0.02360
C806        C  0.91484746  0.17316701  0.17450029    -0.02360
C807        C  0.91488380  0.15990039  0.14148570     0.07570
C808        C  0.94605216  0.16474380  0.12296268    -0.02560
Br809      Br  0.94793776  0.16758508  0.07517164    -0.01100
Br810      Br  0.01927569  0.16806170  0.11560859    -0.01180
Br811      Br  0.87410402  0.18574498  0.19758814    -0.01140
Br812      Br  0.94557473  0.19797282  0.23546417    -0.01120
C813        C  0.13517941  0.18007831  0.95411709    -0.02240
C814        C  0.14780191  0.15275372  0.93602571     0.07440
C815        C  0.18352105  0.14731801  0.94316530    -0.02360
C816        C  0.19969140  0.16117524  0.97182970    -0.02360
C817        C  0.18098188  0.18001580  0.99495202     0.07570
C818        C  0.14739497  0.18805495  0.98589179    -0.02560
Br819      Br  0.11619282  0.20976812  0.01580730    -0.01100
Br820      Br  0.11601174  0.21703008  0.93103931    -0.01180
Br821      Br  0.24900322  0.15754178  0.97703999    -0.01140
Br822      Br  0.21634450  0.13346501  0.91107859    -0.01120
C823        C  0.17932392  0.27017206  0.11177881    -0.02240
C824        C  0.18872495  0.27200021  0.07819539     0.07440
C825        C  0.17927322  0.30013457  0.06014283    -0.02360
C826        C  0.15938487  0.32505754  0.07473746    -0.02360
C827        C  0.15380676  0.32610060  0.11023472     0.07570
C828        C  0.16596256  0.29761188  0.12819520    -0.02560
Br829      Br  0.16811179  0.29487637  0.17627961    -0.01100
Br830      Br  0.18082893  0.22858026  0.13539616    -0.01180
Br831      Br  0.13563176  0.35071165  0.04176738    -0.01140
Br832      Br  0.19332553  0.30560380  0.01455530    -0.01120
C833        C  0.30360085  0.18360556  0.08113365    -0.02240
C834        C  0.26882648  0.17655942  0.08679504     0.07440
C835        C  0.26006447  0.14873930  0.10542722    -0.02360
C836        C  0.28528450  0.12696847  0.11621499    -0.02360
C837        C  0.32142923  0.13573002  0.11516327     0.07570
C838        C  0.32934594  0.16207096  0.09255304    -0.02560
Br839      Br  0.37435708  0.16934908  0.07486612    -0.01100
Br840      Br  0.31605910  0.22547907  0.06181063    -0.01180
Br841      Br  0.26762455  0.08205839  0.11782855    -0.01140
Br842      Br  0.21247760  0.14013582  0.11616372    -0.01120
C843        C  0.06799166  0.06307295  0.96901850    -0.02240
C844        C  0.06074528  0.08062885  0.99832977     0.07440
C845        C  0.07011533  0.11399956  0.99857628    -0.02360
C846        C  0.08115924  0.13024842  0.96927670    -0.02360
C847        C  0.09560938  0.11274362  0.94127840     0.07570
C848        C  0.08628677  0.07808309  0.94176502    -0.02560
Br849      Br  0.09116303  0.04997139  0.90417431    -0.01100
Br850      Br  0.05078763  0.01835607  0.96564947    -0.01180
Br851      Br  0.05815549  0.17176597  0.96561916    -0.01140
Br852      Br  0.06739456  0.13866810  0.03939839    -0.01120
C853        C  0.05400490  0.93853680  0.11624249    -0.02240
C854        C  0.08851951  0.93035575  0.10882891     0.07440
C855        C  0.10318794  0.95033447  0.08354512    -0.02360
C856        C  0.09302472  0.98295960  0.07902033    -0.02360
C857        C  0.06033948  0.99343699  0.08961559     0.07570
C858        C  0.04111854  0.97033769  0.10945546    -0.02560
Br859      Br  0.99799881  0.98000542  0.13124545    -0.01100
Br860      Br  0.01975890  0.90539111  0.12614232    -0.01180
Br861      Br  0.12799921  0.01289725  0.06250139    -0.01140
Br862      Br  0.12193012  0.93051459  0.04402511    -0.01120
C863        C  0.92510539  0.08921937  0.13105617    -0.02240
C864        C  0.90397499  0.10792353  0.10998443     0.07440
C865        C  0.91027343  0.10019469  0.07530409    -0.02360
C866        C  0.93879602  0.08089665  0.06657958    -0.02360
C867        C  0.96697418  0.07905224  0.08791973     0.07570
C868        C  0.95958564  0.08574366  0.12165493    -0.02560
Br869      Br  0.99298507  0.08709687  0.15609860    -0.01100
Br870      Br  0.90653164  0.04608147  0.14048643    -0.01180
Br871      Br  0.93440069  0.04967977  0.03145724    -0.01140
Br872      Br  0.89047239  0.11923849  0.03639834    -0.01120
C873        C  0.05299226  0.17743316  0.85914538    -0.02240
C874        C  0.07287494  0.18474547  0.83069435     0.07440
C875        C  0.10805410  0.18299979  0.83361579    -0.02360
C876        C  0.12254134  0.17267683  0.86382332    -0.02360
C877        C  0.10237852  0.15556334  0.88905719     0.07570
C878        C  0.06610742  0.15814862  0.88504240    -0.02560
Br879      Br  0.03185619  0.12870555  0.90403891    -0.01100
Br880      Br  0.00894503  0.19624801  0.86546785    -0.01180
Br881      Br  0.17046788  0.18094426  0.86670071    -0.01140
Br882      Br  0.13623391  0.19567093  0.79596437    -0.01120
C883        C  0.89712541  0.23428638  0.30688935    -0.02240
C884        C  0.92618269  0.24969135  0.32212075     0.07440
C885        C  0.94128851  0.23074895  0.34789485    -0.02360
C886        C  0.93120378  0.19767926  0.35329445    -0.02360
C887        C  0.89934079  0.18489775  0.34359242     0.07570
C888        C  0.88680741  0.20130496  0.31491835    -0.02560
Br889      Br  0.86109254  0.17760730  0.28162661    -0.01100
Br890      Br  0.86560445  0.25911964  0.28003443    -0.01180
Br891      Br  0.96775830  0.17132653  0.33803846    -0.00500
Br892      Br  0.98039479  0.24374784  0.37378022    -0.01120
C893        C  0.91268116  0.38490710  0.20410056    -0.02240
C894        C  0.90077317  0.36792846  0.17457035     0.07440
C895        C  0.90570491  0.33269573  0.17560909    -0.02360
C896        C  0.92678774  0.31841748  0.20029197    -0.02360
C897        C  0.93382548  0.33527274  0.23010392     0.07570
C898        C  0.92256163  0.36768323  0.23246069    -0.02560
Br899      Br  0.91585476  0.38813986  0.27510585    -0.01100
Br900      Br  0.92147255  0.43185614  0.20720870    -0.01180
Br901      Br  0.94710425  0.27639917  0.19198641    -0.01140
Br902      Br  0.88025140  0.30057177  0.15030292    -0.01120
C903        C  0.04440710  0.32211284  0.33144606    -0.02240
C904        C  0.01673040  0.34262129  0.32560030     0.07440
C905        C  0.02151740  0.37616461  0.33217810    -0.02360
C906        C  0.05268824  0.38831049  0.34555347    -0.02360
C907        C  0.07902141  0.36630693  0.35749188     0.07570
C908        C  0.07453294  0.33260041  0.34759688    -0.02560
Br909      Br  0.10485689  0.29690919  0.35761072    -0.01100
Br910      Br  0.04076343  0.27821954  0.31735850    -0.01180
Br911      Br  0.05683570  0.43591516  0.34811097    -0.01140
Br912      Br  0.98402667  0.40543608  0.32583554    -0.01120
C913        C  0.01427719  0.39382904  0.42262616    -0.02240
C914        C  0.01545270  0.42684904  0.43259643     0.07440
C915        C  0.04776712  0.44031842  0.43897649    -0.02360
C916        C  0.07706275  0.42764692  0.42351842    -0.02360
C917        C  0.07700781  0.39435171  0.41110729     0.07570
C918        C  0.04494588  0.37659322  0.41719641    -0.02560
Br919      Br  0.04036873  0.32901263  0.41688708    -0.01100
Br920      Br  0.97068771  0.37197167  0.41618540    -0.01180
Br921      Br  0.11092852  0.46163553  0.41678310    -0.01140
Br922      Br  0.05363296  0.46905283  0.47618721    -0.01120
C923        C  0.92777967  0.36881616  0.67956940    -0.02240
C924        C  0.92319043  0.33481797  0.68243855     0.07440
C925        C  0.90469062  0.31795509  0.65846972    -0.02360
C926        C  0.89376478  0.33373202  0.62924961    -0.02360
C927        C  0.89533709  0.36941000  0.62603720     0.07570
C928        C  0.91266163  0.38616356  0.65328945    -0.02560
Br929      Br  0.92206342  0.43291586  0.65572524    -0.01100
Br930      Br  0.95689200  0.39191566  0.71122113    -0.01180
Br931      Br  0.87471847  0.30236312  0.59824011    -0.01140
Br932      Br  0.89124046  0.27302888  0.66889952    -0.01120
C933        C  0.87336893  0.43044693  0.54948535    -0.02240
C934        C  0.89293110  0.41476105  0.57542025     0.07440
C935        C  0.92948959  0.41726431  0.57111782    -0.02360
C936        C  0.94376622  0.43239012  0.54239780    -0.02360
C937        C  0.92326158  0.44068450  0.51539643     0.07570
C938        C  0.88801172  0.43868317  0.51878402    -0.02560
Br939      Br  0.85923078  0.44404818  0.48021982    -0.01100
Br940      Br  0.82658805  0.44370290  0.55351276    -0.01180
Br941      Br  0.99233502  0.43982380  0.53796977    -0.01140
Br942      Br  0.96269752  0.39525261  0.59789577    -0.01120
C943        C  0.81932760  0.36252600  0.56752181    -0.02240
C944        C  0.85550022  0.36720456  0.57223939     0.07440
C945        C  0.87660134  0.35342717  0.54576239    -0.02360
C946        C  0.86237592  0.34000641  0.51685186    -0.02360
C947        C  0.82796251  0.33149561  0.51622062     0.07570
C948        C  0.80703010  0.34109147  0.54277171    -0.02560
Br949      Br  0.76057366  0.32523271  0.54522436    -0.01100
Br950      Br  0.78319215  0.38749634  0.58752549    -0.01180
Br951      Br  0.89014481  0.33462365  0.47724382    -0.01140
Br952      Br  0.92493569  0.34556392  0.54827872    -0.01120
C953        C  0.83356117  0.24709119  0.39137939    -0.02240
C954        C  0.82704581  0.24559133  0.42550787     0.07440
C955        C  0.83508464  0.21626729  0.44171368    -0.02360
C956        C  0.85479910  0.19222168  0.42539826    -0.02360
C957        C  0.85514264  0.18984612  0.38938591     0.07570
C958        C  0.83965036  0.21802191  0.37361868    -0.02560
Br959      Br  0.81391471  0.21797409  0.33295706    -0.01100
Br960      Br  0.83464990  0.28869257  0.36806232    -0.01180
Br961      Br  0.88329409  0.16993073  0.45671689    -0.01140
Br962      Br  0.81809640  0.20783144  0.48588239    -0.01120
C963        C  0.69697654  0.33670596  0.38462288    -0.02240
C964        C  0.67764863  0.36309531  0.39784951     0.07440
C965        C  0.68835524  0.37437326  0.43026263    -0.02360
C966        C  0.71787427  0.36120860  0.44573926    -0.02360
C967        C  0.73459576  0.33298927  0.43199559     0.07570
C968        C  0.71791878  0.31819305  0.40490135    -0.02560
Br969      Br  0.71105982  0.27101184  0.40182427    -0.01100
Br970      Br  0.69929544  0.32443872  0.33865894    -0.01180
Br971      Br  0.73106232  0.38258719  0.48709840    -0.01140
Br972      Br  0.66751978  0.41127174  0.45376341    -0.01120
C973        C  0.90125534  0.57638423  0.43155216    -0.02240
C974        C  0.89437272  0.57881482  0.39669783     0.07440
C975        C  0.90950153  0.55286959  0.37653822    -0.02360
C976        C  0.92365025  0.52451706  0.39083831    -0.02360
C977        C  0.93241107  0.52421612  0.42440404     0.07570
C978        C  0.92380182  0.55213908  0.44342211    -0.02560
Br979      Br  0.94649110  0.55987979  0.48448263    -0.01100
Br980      Br  0.87868148  0.60124262  0.46592136    -0.01180
Br981      Br  0.92852638  0.48530914  0.36412684    -0.01140
Br982      Br  0.91438270  0.55515557  0.32873926    -0.01120
C983        C  0.81601303  0.55554280  0.31092377    -0.02240
C984        C  0.81806388  0.52346265  0.32260363     0.07440
C985        C  0.82620145  0.52012972  0.35622459    -0.02360
C986        C  0.83484099  0.54838661  0.37521505    -0.02360
C987        C  0.84598099  0.57906555  0.35917944     0.07570
C988        C  0.83725406  0.58040409  0.32466377    -0.02560
Br989      Br  0.85978134  0.60710994  0.29171352    -0.01100
Br990      Br  0.76923388  0.56632618  0.30421812    -0.01180
Br991      Br  0.82876714  0.54367941  0.42274055    -0.01140
Br992      Br  0.82424192  0.47733807  0.37672461    -0.01120
C993        C  0.82579508  0.40797744  0.22566050    -0.02240
C994        C  0.82185066  0.44215857  0.22617370     0.07440
C995        C  0.83397896  0.46036513  0.19862659    -0.02360
C996        C  0.85323449  0.44519250  0.17276338    -0.02360
C997        C  0.85560565  0.40960161  0.17066419     0.07570
C998        C  0.83788132  0.39198918  0.19713192    -0.02560
Br999      Br  0.82746447  0.34525530  0.19573976    -0.01100
Br1000     Br  0.81773802  0.38225817  0.26547989    -0.01180
Br1001     Br  0.87954589  0.47650707  0.14657820    -0.01140
Br1002     Br  0.82431130  0.50682550  0.19659056    -0.01120
C1003       C  0.69318668  0.44123690  0.30447291    -0.02240
C1004       C  0.72792712  0.43588986  0.31056597     0.07440
C1005       C  0.73649885  0.41583726  0.33701879    -0.02360
C1006       C  0.71240651  0.40973460  0.36160872    -0.02360
C1007       C  0.67664519  0.40808057  0.35426329     0.07570
C1008       C  0.66733501  0.42844107  0.32643265    -0.02560
Br1009     Br  0.62086549  0.44030615  0.31635324    -0.01100
Br1010     Br  0.68168984  0.45969313  0.26227066    -0.01180
Br1011     Br  0.72857095  0.43187771  0.40074625    -0.01140
Br1012     Br  0.78295249  0.40315163  0.34469145    -0.01120
C1013       C  0.08788054  0.35220088  0.63276703    -0.02240
C1014       C  0.09719121  0.38569272  0.64363474     0.07440
C1015       C  0.08183294  0.39456509  0.67438531    -0.02360
C1016       C  0.06846527  0.37084263  0.69648245    -0.02360
C1017       C  0.05817381  0.33927634  0.68534527     0.07570
C1018       C  0.06877109  0.32997637  0.65337896    -0.02560
Br1019     Br  0.05706214  0.28627347  0.63728097    -0.01100
Br1020     Br  0.09427445  0.33549770  0.58776472    -0.01180
Br1021     Br  0.06189935  0.38462284  0.74192931    -0.01140
Br1022     Br  0.05549797  0.43352163  0.67816968    -0.01120
C1023       C  0.15046646  0.47186969  0.69625412    -0.02240
C1024       C  0.18553042  0.47791973  0.69257266     0.07440
C1025       C  0.20316028  0.45544598  0.67292583    -0.02360
C1026       C  0.18584103  0.43264950  0.65185712    -0.02360
C1027       C  0.14848109  0.43213149  0.64974339     0.07570
C1028       C  0.13286206  0.45671760  0.67038444    -0.02560
Br1029     Br  0.10434516  0.49136073  0.65402315    -0.01100
Br1030     Br  0.12391053  0.48466847  0.73427629    -0.01180
Br1031     Br  0.21783841  0.40998460  0.62292438    -0.01140
Br1032     Br  0.25134611  0.45257885  0.68054243    -0.01120
C1033       C  0.15733830  0.57159877  0.77286865    -0.02240
C1034       C  0.19286416  0.57063414  0.77259675     0.07440
C1035       C  0.20992030  0.58737824  0.79802659    -0.02360
C1036       C  0.19174629  0.60632564  0.82155961    -0.02360
C1037       C  0.15524541  0.60201231  0.82591843     0.07570
C1038       C  0.13958835  0.58079364  0.80153566    -0.02560
Br1039     Br  0.09680293  0.55747490  0.80503441    -0.01100
Br1040     Br  0.13266254  0.56780459  0.73169522    -0.01180
Br1041     Br  0.21838665  0.64294963  0.83874039    -0.01140
Br1042     Br  0.25825760  0.58848070  0.79813793    -0.01120
C1043       C  0.32305661  0.57166498  0.63442579    -0.02240
C1044       C  0.33398482  0.60492228  0.64356561     0.07440
C1045       C  0.31449079  0.61807166  0.66986481    -0.02360
C1046       C  0.28090218  0.60712888  0.67639946    -0.02360
C1047       C  0.27037800  0.57426732  0.66981867     0.07570
C1048       C  0.29175839  0.55724288  0.64688841    -0.02560
Br1049     Br  0.27728082  0.51599093  0.62691142    -0.01100
Br1050     Br  0.34950218  0.54161705  0.60680190    -0.01180
Br1051     Br  0.24959891  0.64062474  0.68993432    -0.01140
Br1052     Br  0.33779808  0.62440837  0.71091846    -0.01120
C1053       C  0.06614505  0.61355508  0.49289382    -0.02240
C1054       C  0.05465771  0.58101651  0.48953201     0.07440
C1055       C  0.05682939  0.56700090  0.45814086    -0.02360
C1056       C  0.07926621  0.57979945  0.43405145    -0.02360
C1057       C  0.08945713  0.61402336  0.43494942     0.07570
C1058       C  0.07814278  0.63113716  0.46490305    -0.02560
Br1059     Br  0.07661614  0.67860098  0.47011737    -0.01100
Br1060     Br  0.06620663  0.63448828  0.53588619    -0.01180
Br1061     Br  0.09977497  0.54432881  0.40969836    -0.01140
Br1062     Br  0.02284863  0.53648494  0.44437940    -0.01120
C1063       C  0.07164149  0.43661197  0.59824296    -0.02240
C1064       C  0.10774229  0.43519065  0.60059900     0.07440
C1065       C  0.12530328  0.46318531  0.58577519    -0.02360
C1066       C  0.10719743  0.49115133  0.57380790    -0.02360
C1067       C  0.07121188  0.49334119  0.57745217     0.07570
C1068       C  0.05437861  0.46622809  0.59261824    -0.02560
Br1069     Br  0.00901024  0.46909939  0.61150541    -0.01100
Br1070     Br  0.04488505  0.39829928  0.58991325    -0.01180
Br1071     Br  0.13301057  0.52971002  0.55967693    -0.01140
Br1072     Br  0.17418490  0.46528969  0.58084492    -0.01120
C1073       C  0.26610526  0.64711733  0.58658023    -0.02240
C1074       C  0.26403906  0.68121057  0.58204293     0.07440
C1075       C  0.29434741  0.69984459  0.58594352    -0.02360
C1076       C  0.32507546  0.68479400  0.59655637    -0.02360
C1077       C  0.32688583  0.64971280  0.60108951     0.07570
C1078       C  0.29770482  0.63203377  0.58931765    -0.02560
Br1079     Br  0.30125295  0.59233367  0.56374220    -0.01100
Br1080     Br  0.22599018  0.61990213  0.59169392    -0.01180
Br1081     Br  0.36492489  0.71278707  0.59553988    -0.01140
Br1082     Br  0.29441810  0.74574749  0.57479371    -0.01120
C1083       C  0.14836462  0.68315062  0.44101390    -0.02240
C1084       C  0.14155447  0.64830134  0.43699101     0.07440
C1085       C  0.15276588  0.62805310  0.46457147    -0.02360
C1086       C  0.16304003  0.64191620  0.49498406    -0.02360
C1087       C  0.17025773  0.67545330  0.49767139     0.07570
C1088       C  0.16482252  0.69540868  0.46982174    -0.02560
Br1089     Br  0.17952527  0.74062391  0.47172357    -0.01100
Br1090     Br  0.12908298  0.71778134  0.41464859    -0.01180
Br1091     Br  0.16299933  0.61519506  0.53440201    -0.01140
Br1092     Br  0.15432661  0.58038648  0.46312546    -0.01120
C1093       C  0.14627407  0.78563797  0.57072083    -0.02240
C1094       C  0.16468291  0.76206204  0.58886146     0.07440
C1095       C  0.16928121  0.76888966  0.62260311    -0.02360
C1096       C  0.16266737  0.80041572  0.63620423    -0.02360
C1097       C  0.14726101  0.82702404  0.61723331     0.07570
C1098       C  0.14035187  0.81795366  0.58323411    -0.02560
Br1099     Br  0.12043831  0.84630553  0.55087032    -0.01100
Br1100     Br  0.12083057  0.77221392  0.53198426    -0.01180
Br1101     Br  0.17969924  0.80493861  0.68090653    -0.01140
Br1102     Br  0.17783512  0.73210074  0.65206062    -0.01120
C1103       C  0.96342462  0.63126963  0.61436527    -0.02240
C1104       C  0.92716498  0.62376224  0.61371111     0.07440
C1105       C  0.91838186  0.59839973  0.59062615    -0.02360
C1106       C  0.94320518  0.57550128  0.57979630    -0.02360
C1107       C  0.97796119  0.58017658  0.58711174     0.07570
C1108       C  0.98768252  0.60786484  0.60522646    -0.02560
Br1109     Br  0.03514053  0.61463082  0.61643745    -0.01100
Br1110     Br  0.98232441  0.67572289  0.61463135    -0.01180
Br1111     Br  0.92910889  0.53418658  0.56058163    -0.01140
Br1112     Br  0.87403829  0.59486200  0.57103515    -0.01120
C1113       C  0.95168966  0.71301885  0.68456154    -0.02240
C1114       C  0.97919822  0.69505061  0.69758101     0.07440
C1115       C  0.97673030  0.66059776  0.69555646    -0.02360
C1116       C  0.94688896  0.64527422  0.68347120    -0.02360
C1117       C  0.92337765  0.66265793  0.66264305     0.07570
C1118       C  0.92592593  0.69781138  0.66495592    -0.02560
Br1119     Br  0.89514439  0.72739365  0.64378882    -0.01100
Br1120     Br  0.94620941  0.75786394  0.69683017    -0.01180
Br1121     Br  0.94070885  0.60058211  0.69788494    -0.01140
Br1122     Br  0.01565039  0.63317801  0.70457618    -0.01120
C1123       C  0.07398702  0.78314472  0.65954982    -0.02240
C1124       C  0.07565453  0.77970584  0.69397273     0.07440
C1125       C  0.09248283  0.80480424  0.71225545    -0.02360
C1126       C  0.10853122  0.83219168  0.69585668    -0.02360
C1127       C  0.10516515  0.83678816  0.66030637     0.07570
C1128       C  0.08294751  0.81295785  0.64429794    -0.02560
Br1129     Br  0.06208801  0.81879169  0.60139934    -0.01100
Br1130     Br  0.06507830  0.74511766  0.63167600    -0.01180
Br1131     Br  0.13789891  0.85819459  0.72458771    -0.01140
Br1132     Br  0.09668623  0.80031127  0.76013158    -0.01120
C1133       C  0.10114965  0.66683504  0.76743739    -0.02240
C1134       C  0.07633488  0.68868237  0.77799024     0.07440
C1135       C  0.07293923  0.69494722  0.81210387    -0.02360
C1136       C  0.08973687  0.67491338  0.83569383    -0.02360
C1137       C  0.11561681  0.65202701  0.82515806     0.07570
C1138       C  0.12413540  0.65423050  0.79034939    -0.02560
Br1139     Br  0.16999914  0.65876997  0.77347098    -0.01100
Br1140     Br  0.10729363  0.65787738  0.72062760    -0.01180
Br1141     Br  0.07206057  0.67744336  0.88043355    -0.01140
Br1142     Br  0.04549285  0.73129954  0.82605143    -0.01120
C1143       C  0.91340913  0.19043262  0.68333364    -0.02240
C1144       C  0.94161080  0.19864589  0.66308649     0.07440
C1145       C  0.93716519  0.19725094  0.62888834    -0.02360
C1146       C  0.90603689  0.18509673  0.61524512    -0.02360
C1147       C  0.87950214  0.16899706  0.63557899     0.07570
C1148       C  0.88451234  0.17305391  0.67098944    -0.02560
Br1149     Br  0.85971838  0.15034934  0.70629139    -0.01100
Br1150     Br  0.91389114  0.20517862  0.72872340    -0.01180
Br1151     Br  0.90227192  0.19139475  0.56786382    -0.01140
Br1152     Br  0.97458944  0.21182428  0.60086049    -0.01120
C1153       C  0.67871481  0.15668574  0.41902042    -0.02240
C1154       C  0.64227358  0.15315924  0.41549631     0.07440
C1155       C  0.62334894  0.16953827  0.44167959    -0.02360
C1156       C  0.63921192  0.18008670  0.47112360    -0.02360
C1157       C  0.67453742  0.18585299  0.47183946     0.07570
C1158       C  0.69351005  0.17683847  0.44389439    -0.02560
Br1159     Br  0.73999235  0.19277527  0.43948093    -0.01100
Br1160     Br  0.71146936  0.13058099  0.39759201    -0.01180
Br1161     Br  0.61183428  0.18433821  0.51092529    -0.01140
Br1162     Br  0.57676200  0.18362070  0.43810474    -0.01120
C1163       C  0.64476005  0.26242594  0.58216530    -0.02240
C1164       C  0.67097839  0.27114803  0.56040585     0.07440
C1165       C  0.67338647  0.30418423  0.55048626    -0.02360
C1166       C  0.65933306  0.32940649  0.57071498    -0.02360
C1167       C  0.63628157  0.32065950  0.59747444     0.07570
C1168       C  0.62358656  0.28693680  0.59451113    -0.02560
Br1169     Br  0.57603286  0.27299869  0.59939773    -0.01100
Br1170     Br  0.63504627  0.21669089  0.59189189    -0.01180
Br1171     Br  0.66887645  0.37409634  0.55658278    -0.01140
Br1172     Br  0.68647291  0.31246637  0.50533756    -0.01120
C1173       C  0.79573963  0.13979710  0.58240917    -0.02240
C1174       C  0.82398888  0.15972588  0.59522886     0.07440
C1175       C  0.81981133  0.19460004  0.59024268    -0.02360
C1176       C  0.79300315  0.20707150  0.57078783    -0.02360
C1177       C  0.76453336  0.18749648  0.56243584     0.07570
C1178       C  0.76547940  0.15400383  0.57039812    -0.02560
Br1179     Br  0.72416107  0.12744335  0.56721043    -0.01100
Br1180     Br  0.79699990  0.09268325  0.57571023    -0.01180
Br1181     Br  0.79581823  0.25186901  0.55538504    -0.01140
Br1182     Br  0.84342583  0.22882874  0.61388355    -0.01120
C1183       C  0.61586082  0.09335261  0.44287702    -0.02240
C1184       C  0.59877404  0.10933709  0.41547948     0.07440
C1185       C  0.56190447  0.11128457  0.41937664    -0.02360
C1186       C  0.54493461  0.09829690  0.44801915    -0.02360
C1187       C  0.56280068  0.08172217  0.47302627     0.07570
C1188       C  0.59837577  0.08232777  0.47148013    -0.02560
Br1189     Br  0.62371448  0.07216539  0.51136968    -0.01100
Br1190     Br  0.66364855  0.08242848  0.44264199    -0.01180
Br1191     Br  0.49738698  0.10840288  0.45515885    -0.01140
Br1192     Br  0.53095632  0.13475326  0.39068419    -0.01120
C1193       C  0.44632482  0.08319864  0.54449010    -0.02240
C1194       C  0.47354145  0.07040113  0.56309111     0.07440
C1195       C  0.47173025  0.07276453  0.59780710    -0.02360
C1196       C  0.44335250  0.08749880  0.61310149    -0.02360
C1197       C  0.42036469  0.10789323  0.59414370     0.07570
C1198       C  0.42293134  0.10525260  0.55887345    -0.02560
Br1199     Br  0.40231178  0.13535898  0.52847947    -0.01100
Br1200     Br  0.43913628  0.06851119  0.49971838    -0.01180
Br1201     Br  0.43994722  0.08216874  0.66101992    -0.01140
Br1202     Br  0.51022986  0.06094151  0.62493236    -0.01120
C1203       C  0.57206001  0.94970352  0.59906429    -0.02240
C1204       C  0.60015824  0.93033112  0.58739810     0.07440
C1205       C  0.60734388  0.93619617  0.55222905    -0.02360
C1206       C  0.59296296  0.96415528  0.53534404    -0.02360
C1207       C  0.56273721  0.97970626  0.54786353     0.07570
C1208       C  0.54994564  0.96503065  0.57688362    -0.02560
Br1209     Br  0.50200483  0.95381234  0.58058158    -0.01100
Br1210     Br  0.55858858  0.95687528  0.64412737    -0.01180
Br1211     Br  0.61866567  0.98019500  0.49724681    -0.01140
Br1212     Br  0.64001542  0.91178416  0.52526392    -0.01120
C1213       C  0.44254830  0.17846637  0.68797174    -0.02240
C1214       C  0.47726682  0.17741255  0.67937962     0.07440
C1215       C  0.48668997  0.16408259  0.64897887    -0.02360
C1216       C  0.46183882  0.15469187  0.62596187    -0.02360
C1217       C  0.42556675  0.15335232  0.63494156     0.07570
C1218       C  0.41722163  0.17099308  0.66437216    -0.02560
Br1219     Br  0.37594029  0.19621595  0.66861530    -0.01100
Br1220     Br  0.42903994  0.18502651  0.73327888    -0.01180
Br1221     Br  0.48052552  0.15264091  0.58089382    -0.01140
Br1222     Br  0.53479012  0.15728913  0.63960104    -0.01120
C1223       C  0.57293078  0.14509860  0.76825108    -0.02240
C1224       C  0.56553244  0.17865950  0.76906904     0.07440
C1225       C  0.57681190  0.19759545  0.79617164    -0.02360
C1226       C  0.59806504  0.18434967  0.82069266    -0.02360
C1227       C  0.60383811  0.14935210  0.82206936     0.07570
C1228       C  0.58910813  0.13012589  0.79523188    -0.02560
Br1229     Br  0.58815616  0.08231170  0.79430857    -0.01100
Br1230     Br  0.56386604  0.11948844  0.72857296    -0.01180
Br1231     Br  0.62352808  0.21820585  0.84470821    -0.01140
Br1232     Br  0.56453596  0.24317361  0.79909282    -0.01120
C1233       C  0.55207605  0.29501840  0.67483332    -0.02240
C1234       C  0.56878039  0.26535943  0.68151206     0.07440
C1235       C  0.60427467  0.26412450  0.67583908    -0.02360
C1236       C  0.62203939  0.29162099  0.66259752    -0.02360
C1237       C  0.60410408  0.32052872  0.65142942     0.07570
C1238       C  0.56993746  0.32267917  0.66226142    -0.02560
Br1239     Br  0.55149804  0.36362460  0.67409767    -0.01100
Br1240     Br  0.50425896  0.29891142  0.68262098    -0.01180
Br1241     Br  0.67142250  0.28803378  0.65944073    -0.01140
Br1242     Br  0.62847090  0.22320196  0.68128013    -0.01120
C1243       C  0.68057310  0.06619850  0.79101457    -0.02240
C1244       C  0.68170139  0.08309029  0.76097629     0.07440
C1245       C  0.67077200  0.11537524  0.76039312    -0.02360
C1246       C  0.66463818  0.13231550  0.79007452    -0.02360
C1247       C  0.65557901  0.11467070  0.82041837     0.07570
C1248       C  0.66374835  0.07981694  0.81900559    -0.02560
Br1249     Br  0.64649123  0.04537479  0.84727947    -0.01100
Br1250     Br  0.69799069  0.02219614  0.79157752    -0.01180
Br1251     Br  0.66741696  0.17960504  0.78471255    -0.01140
Br1252     Br  0.65669377  0.13416995  0.71888034    -0.01120
C1253       C  0.77164773  0.12093435  0.67126406    -0.02240
C1254       C  0.76928823  0.08640700  0.67090470     0.07440
C1255       C  0.79691448  0.06924989  0.65715112    -0.02360
C1256       C  0.82652204  0.08580755  0.64403864    -0.02360
C1257       C  0.82888206  0.12165677  0.64311479     0.07570
C1258       C  0.80082653  0.13805933  0.65936075    -0.02560
Br1259     Br  0.79944198  0.18529653  0.66596527    -0.01100
Br1260     Br  0.73226546  0.14631351  0.68342759    -0.01180
Br1261     Br  0.85773109  0.05558350  0.62227772    -0.01140
Br1262     Br  0.79211126  0.02236762  0.65175189    -0.01120
C1263       C  0.63902569  0.94844060  0.66881870    -0.02240
C1264       C  0.64115292  0.94309972  0.63326936     0.07440
C1265       C  0.65576355  0.97133196  0.61560842    -0.02360
C1266       C  0.66458665  0.00110052  0.63189990    -0.02360
C1267       C  0.67011021  0.00161547  0.66617872     0.07570
C1268       C  0.65854183  0.97380925  0.68419654    -0.02560
Br1269     Br  0.67069532  0.96854805  0.73005174    -0.01100
Br1270     Br  0.60701474  0.92756739  0.69955474    -0.01180
Br1271     Br  0.66718037  0.04174841  0.60683109    -0.01140
Br1272     Br  0.67278428  0.97094752  0.57070002    -0.01120
C1273       C  0.05514255  0.10910542  0.42021709    -0.02240
C1274       C  0.06246097  0.07631118  0.42629469     0.07440
C1275       C  0.08693378  0.06145280  0.40604639    -0.02360
C1276       C  0.09876896  0.07647924  0.37633123    -0.02360
C1277       C  0.09335994  0.11095549  0.37009209     0.07570
C1278       C  0.06724476  0.12475827  0.39093694    -0.02560
Br1279     Br  0.03998242  0.16048235  0.37642490    -0.01100
Br1280     Br  0.02646526  0.13178147  0.45150196    -0.01180
Br1281     Br  0.10710854  0.04405612  0.34219790    -0.01140
Br1282     Br  0.10315648  0.01901369  0.41944117    -0.01120
C1283       C  0.88065899  0.11684967  0.56252768    -0.02240
C1284       C  0.87977566  0.12155458  0.59810255     0.07440
C1285       C  0.90984916  0.11020880  0.61537192    -0.02360
C1286       C  0.93927920  0.10056025  0.59813064    -0.02360
C1287       C  0.93775139  0.09296286  0.56443929     0.07570
C1288       C  0.90743997  0.09923359  0.54754315    -0.02560
Br1289     Br  0.90061473  0.08089459  0.50452704    -0.01100
Br1290     Br  0.85097014  0.13652575  0.53000804    -0.01180
Br1291     Br  0.98222818  0.09651523  0.62121323    -0.01140
Br1292     Br  0.91215464  0.10318671  0.66285913    -0.01120
C1293       C  0.07660394  0.89726576  0.62266911    -0.02240
C1294       C  0.11044622  0.88548756  0.61465770     0.07440
C1295       C  0.12877557  0.90657098  0.59090851    -0.02360
C1296       C  0.11215229  0.93169679  0.57261254    -0.02360
C1297       C  0.07966723  0.94178372  0.58179809     0.07570
C1298       C  0.06517936  0.92770310  0.61011460    -0.02560
Br1299     Br  0.03468705  0.95465893  0.63575549    -0.01100
Br1300     Br  0.04412759  0.87757282  0.65346709    -0.01180
Br1301     Br  0.13514995  0.95652494  0.53797583    -0.01140
Br1302     Br  0.17628737  0.90206337  0.57990166    -0.01120
C1303       C  0.89086710  0.08039417  0.41871657    -0.02240
C1304       C  0.92590728  0.07700071  0.41428466     0.07440
C1305       C  0.94373825  0.10217315  0.39799590    -0.02360
C1306       C  0.92929797  0.13319143  0.39354041    -0.02360
C1307       C  0.89341687  0.13625210  0.39182224     0.07570
C1308       C  0.87455206  0.10959872  0.40836449    -0.02560
Br1309     Br  0.82884584  0.11352355  0.42557703    -0.01100
Br1310     Br  0.86510246  0.04297503  0.43555081    -0.01180
Br1311     Br  0.95505753  0.16627096  0.41733729    -0.01140
Br1312     Br  0.98644834  0.09263259  0.37776953    -0.01120
C1313       C  0.83539806  0.45619754  0.66126442    -0.02240
C1314       C  0.80891595  0.43957928  0.67677135     0.07440
C1315       C  0.80432181  0.40619587  0.67086727    -0.02360
C1316       C  0.82583077  0.39001843  0.64789860    -0.02360
C1317       C  0.84794420  0.40860647  0.62507598     0.07570
C1318       C  0.85081317  0.44357970  0.63249262    -0.02560
Br1319     Br  0.87677295  0.47751997  0.60881828    -0.01100
Br1320     Br  0.85332167  0.49367127  0.68502166    -0.01180
Br1321     Br  0.81903527  0.34284550  0.64714739    -0.01140
Br1322     Br  0.76835198  0.38320443  0.69497156    -0.01120
C1323       C  0.68838387  0.41149791  0.64386969    -0.02240
C1324       C  0.68105697  0.42120362  0.67682384     0.07440
C1325       C  0.66380562  0.39822489  0.69738060    -0.02360
C1326       C  0.64980260  0.36886033  0.68379307    -0.02360
C1327       C  0.65113445  0.36310858  0.64815158     0.07570
C1328       C  0.67800933  0.38018288  0.63255014    -0.02560
Br1329     Br  0.71550723  0.35233973  0.62232867    -0.01100
Br1330     Br  0.71640773  0.43790483  0.61463107    -0.01180
Br1331     Br  0.63493257  0.33817386  0.71776533    -0.01140
Br1332     Br  0.65054582  0.41087007  0.74199362    -0.01120
C1333       C  0.83504378  0.57301842  0.65579842    -0.02240
C1334       C  0.81188135  0.58763743  0.67847387     0.07440
C1335       C  0.82244292  0.61726432  0.69374883    -0.02360
C1336       C  0.85442312  0.63225267  0.68564338    -0.02360
C1337       C  0.87634805  0.61881516  0.66017549     0.07570
C1338       C  0.86819730  0.58585375  0.65121974    -0.02560
Br1339     Br  0.90225411  0.55250214  0.64635925    -0.01100
Br1340     Br  0.82062748  0.54119985  0.62286434    -0.01180
Br1341     Br  0.86528537  0.67188716  0.71013289    -0.01140
Br1342     Br  0.79024396  0.64189765  0.71994288    -0.01120
C1343       C  0.66889862  0.59112164  0.81157799    -0.02240
C1344       C  0.69773360  0.57638934  0.82536027     0.07440
C1345       C  0.69967151  0.57549729  0.86050937    -0.02360
C1346       C  0.67259465  0.58595972  0.88069673    -0.02360
C1347       C  0.64722609  0.60759714  0.86825416     0.07570
C1348       C  0.64294990  0.60463433  0.83236504    -0.02560
Br1349     Br  0.59925255  0.60643137  0.80982855    -0.01100
Br1350     Br  0.66411400  0.59211191  0.76381745    -0.01180
Br1351     Br  0.66778398  0.55967940  0.92028328    -0.01140
Br1352     Br  0.74177117  0.56562735  0.88358778    -0.01120
C1353       C  0.68556174  0.79047766  0.08933662    -0.02240
C1354       C  0.67282456  0.77504138  0.05981320     0.07440
C1355       C  0.64268064  0.78973338  0.04648594    -0.02360
C1356       C  0.62336066  0.81269549  0.06538485    -0.02360
C1357       C  0.63561016  0.82584751  0.09628727     0.07570
C1358       C  0.67017270  0.81866354  0.10273221    -0.02560
Br1359     Br  0.70242918  0.85304869  0.11336854    -0.01100
Br1360     Br  0.72259683  0.77512366  0.11608592    -0.01180
Br1361     Br  0.58389191  0.83054537  0.04338448    -0.01140
Br1362     Br  0.62520089  0.78087076  0.00240768    -0.01120
C1363       C  0.78693105  0.70056973  0.07291334    -0.02240
C1364       C  0.75807945  0.68148807  0.06432671     0.07440
C1365       C  0.76102351  0.64730173  0.06537961    -0.02360
C1366       C  0.79240663  0.63263210  0.07361704    -0.02360
C1367       C  0.81973401  0.65090124  0.08977211     0.07570
C1368       C  0.81720940  0.68593705  0.08486824    -0.02560
Br1369     Br  0.85620289  0.71512422  0.08402631    -0.01100
Br1370     Br  0.78649210  0.74729309  0.06438409    -0.01180
Br1371     Br  0.79972473  0.59273885  0.04863218    -0.01140
Br1372     Br  0.72207536  0.62035453  0.05276468    -0.01120
C1373       C  0.64730443  0.69529328  0.96133371    -0.02240
C1374       C  0.68300958  0.69578240  0.96376914     0.07440
C1375       C  0.70137277  0.68159598  0.93726024    -0.02360
C1376       C  0.68440687  0.66416933  0.91127529    -0.02360
C1377       C  0.64791504  0.66109591  0.91055250     0.07570
C1378       C  0.63109803  0.68344415  0.93273655    -0.02560
Br1379     Br  0.58966864  0.70619532  0.92336582    -0.01100
Br1380     Br  0.61897129  0.70063822  0.00015189    -0.01180
Br1381     Br  0.71306723  0.64950256  0.87611950    -0.01140
Br1382     Br  0.75001836  0.68376092  0.93743867    -0.01120
C1383       C  0.46113418  0.56855143  0.09291543    -0.02240
C1384       C  0.47466875  0.57947818  0.06175262     0.07440
C1385       C  0.45437815  0.60285328  0.04470000    -0.02360
C1386       C  0.42569536  0.61736942  0.06042044    -0.02360
C1387       C  0.41123537  0.60419342  0.09087973     0.07570
C1388       C  0.42750823  0.57565975  0.10257141    -0.02560
Br1389     Br  0.40172174  0.53822191  0.11839654    -0.01100
Br1390     Br  0.48825072  0.55040064  0.12809497    -0.01180
Br1391     Br  0.41265055  0.65879012  0.04040259    -0.01140
Br1392     Br  0.46531787  0.61928556  0.00083219    -0.01120
C1393       C  0.58957302  0.58114222  0.91720100    -0.02240
C1394       C  0.61069031  0.60978334  0.92248548     0.07440
C1395       C  0.61822651  0.61567145  0.95708351    -0.02360
C1396       C  0.59567117  0.60503158  0.98230094    -0.02360
C1397       C  0.57310878  0.57890284  0.97622933     0.07570
C1398       C  0.57354159  0.56466288  0.94427663    -0.02560
Br1399     Br  0.55432881  0.52157311  0.93731787    -0.01100
Br1400     Br  0.58076162  0.56286864  0.87428506    -0.01180
Br1401     Br  0.60149008  0.62084242  0.02719366    -0.01140
Br1402     Br  0.66434688  0.61935474  0.97355222    -0.01120
C1403       C  0.62037317  0.47368343  0.08647298    -0.02240
C1404       C  0.60456671  0.44388930  0.09970682     0.07440
C1405       C  0.56781889  0.44218417  0.09514294    -0.02360
C1406       C  0.55096889  0.46447238  0.07404480    -0.02360
C1407       C  0.56709238  0.49360141  0.06367123     0.07570
C1408       C  0.60108814  0.49909478  0.07272590    -0.02560
Br1409     Br  0.62110452  0.54293764  0.06910146    -0.01100
Br1410     Br  0.66882861  0.48170017  0.08226287    -0.01180
Br1411     Br  0.50451731  0.45607395  0.06065395    -0.01140
Br1412     Br  0.53562138  0.41663241  0.12108908    -0.01120
C1413       C  0.43117063  0.68408439  0.18188019    -0.02240
C1414       C  0.46438042  0.67130707  0.18207429     0.07440
C1415       C  0.47193713  0.64666141  0.15934870    -0.02360
C1416       C  0.45015543  0.64321293  0.13234866    -0.02360
C1417       C  0.41385990  0.64663159  0.13689068     0.07570
C1418       C  0.40504818  0.66742934  0.16427912    -0.02560
Br1419     Br  0.35969687  0.67660666  0.17851775    -0.01100
Br1420     Br  0.42306119  0.72782701  0.19801876    -0.01180
Br1421     Br  0.47291759  0.66560309  0.09618559    -0.01140
Br1422     Br  0.51730056  0.62923726  0.15642543    -0.01120
C1423       C  0.56833532  0.67787401  0.33149554    -0.02240
C1424       C  0.59551571  0.65605159  0.32331905     0.07440
C1425       C  0.60231954  0.65384329  0.28807092    -0.02360
C1426       C  0.57786363  0.66183596  0.26442027    -0.02360
C1427       C  0.55075166  0.68195040  0.27279701     0.07570
C1428       C  0.54544301  0.68905892  0.30668865    -0.02560
Br1429     Br  0.50249495  0.70629419  0.32044148    -0.01100
Br1430     Br  0.56040140  0.69321539  0.37586621    -0.01180
Br1431     Br  0.58360929  0.64693347  0.21910292    -0.01140
Br1432     Br  0.64653687  0.66140374  0.26828707    -0.01120
C1433       C  0.58811464  0.76693158  0.17651281    -0.02240
C1434       C  0.55232945  0.76180734  0.17538515     0.07440
C1435       C  0.53450091  0.78077769  0.15109178    -0.02360
C1436       C  0.55192588  0.80539818  0.13134588    -0.02360
C1437       C  0.58772913  0.81292047  0.13646424     0.07570
C1438       C  0.60406247  0.78576511  0.15149464    -0.02560
Br1439     Br  0.62301106  0.75361974  0.12191023    -0.01100
Br1440     Br  0.61837672  0.73861704  0.20110470    -0.01180
Br1441     Br  0.52467274  0.82419309  0.09633886    -0.01140
Br1442     Br  0.48566007  0.77468369  0.14401409    -0.01120
C1443       C  0.62684844  0.46992160  0.16362684    -0.02240
C1444       C  0.64601821  0.44455679  0.14693037     0.07440
C1445       C  0.68263959  0.44789484  0.15058644    -0.02360
C1446       C  0.69681856  0.47027413  0.17361641    -0.02360
C1447       C  0.67824192  0.49735328  0.18508795     0.07570
C1448       C  0.64310649  0.49753928  0.17835769    -0.02560
Br1449     Br  0.61698908  0.53685029  0.18615200    -0.01100
Br1450     Br  0.57798167  0.46817348  0.16939213    -0.01180
Br1451     Br  0.74239517  0.46319454  0.18926935    -0.01140
Br1452     Br  0.71716344  0.43121384  0.12037883    -0.01120
C1453       C  0.80472824  0.58621768  0.12525749    -0.02240
C1454       C  0.82738217  0.61094938  0.13773792     0.07440
C1455       C  0.82604875  0.61321672  0.17333240    -0.02360
C1456       C  0.79810869  0.59834136  0.19089481    -0.02360
C1457       C  0.76907236  0.58536861  0.17473745     0.07570
C1458       C  0.77269373  0.58085266  0.14022368    -0.02560
Br1459     Br  0.73676919  0.56375630  0.11247443    -0.01100
Br1460     Br  0.82288374  0.54607617  0.10696590    -0.01180
Br1461     Br  0.80408019  0.58660352  0.23550756    -0.01140
Br1462     Br  0.86437330  0.62704688  0.20072274    -0.01120
C1463       C  0.69715459  0.61234818  0.29553679    -0.02240
C1464       C  0.68458512  0.58529352  0.27611705     0.07440
C1465       C  0.65669734  0.56887332  0.29106294    -0.02360
C1466       C  0.63287989  0.58614794  0.30976598    -0.02360
C1467       C  0.64328447  0.61389562  0.32942020     0.07570
C1468       C  0.67895673  0.62230338  0.32487895    -0.02560
Br1469     Br  0.70724619  0.63957605  0.35925408    -0.01100
Br1470     Br  0.73616032  0.63966511  0.28352860    -0.01180
Br1471     Br  0.58824224  0.56644638  0.30690545    -0.01140
Br1472     Br  0.66416805  0.52570239  0.30815036    -0.01120
C1473       C  0.36160541  0.30960497  0.02655829    -0.02240
C1474       C  0.32579871  0.31068081  0.02439708     0.07440
C1475       C  0.30866119  0.32403398  0.05197335    -0.02360
C1476       C  0.32619370  0.34189674  0.07705723    -0.02360
C1477       C  0.36255820  0.34218119  0.07873486     0.07570
C1478       C  0.37825447  0.31989008  0.05580022    -0.02560
Br1479     Br  0.41153812  0.28897134  0.06986728    -0.01100
Br1480     Br  0.38953845  0.29547497  0.98979483    -0.01180
Br1481     Br  0.29814895  0.35975736  0.11096376    -0.01140
Br1482     Br  0.26190947  0.31301294  0.05875666    -0.01120
C1483       C  0.10004777  0.31081079  0.82335135    -0.02240
C1484       C  0.06659369  0.32132993  0.82996408     0.07440
C1485       C  0.06162573  0.34608546  0.85284850    -0.02360
C1486       C  0.08833728  0.35557563  0.87339398    -0.02360
C1487       C  0.12376539  0.35126224  0.86365392     0.07570
C1488       C  0.12842212  0.32498434  0.84037804    -0.02560
Br1489     Br  0.17214155  0.30704360  0.83042466    -0.01100
Br1490     Br  0.10744139  0.28153702  0.78656262    -0.01180
Br1491     Br  0.07109447  0.35173306  0.91823647    -0.01140
Br1492     Br  0.01657241  0.36406525  0.85944250    -0.01120
C1493       C  0.17573517  0.32199423  0.91591555    -0.02240
C1494       C  0.18273576  0.35096570  0.89604177     0.07440
C1495       C  0.21911128  0.35511282  0.89000236    -0.02360
C1496       C  0.24316224  0.34547487  0.91365762    -0.02360
C1497       C  0.23573026  0.31839484  0.93373268     0.07570
C1498       C  0.20259714  0.30451728  0.93156151    -0.02560
Br1499     Br  0.19487598  0.26006871  0.94738015    -0.01100
Br1500     Br  0.13184941  0.30171053  0.92090340    -0.01180
Br1501     Br  0.28928289  0.36269228  0.91125896    -0.01140
Br1502     Br  0.23922906  0.35250032  0.84592135    -0.01120
C1503       C  0.36229273  0.18910443  0.92467051    -0.02240
C1504       C  0.34812449  0.17275919  0.89618840     0.07440
C1505       C  0.31158934  0.17678924  0.89308197    -0.02360
C1506       C  0.29426116  0.20144370  0.91201540    -0.02360
C1507       C  0.31119232  0.21873056  0.93795116     0.07570
C1508       C  0.34196038  0.20514542  0.94765295    -0.02560
Br1509     Br  0.34668178  0.18875234  0.99188499    -0.01100
Br1510     Br  0.40947492  0.19549512  0.93497549    -0.01180
Br1511     Br  0.24711084  0.20975411  0.90238823    -0.01140
Br1512     Br  0.28314146  0.15213783  0.86339974    -0.01120
C1513       C  0.66042386  0.38107890  0.83171090    -0.02240
C1514       C  0.63480997  0.40025598  0.84889024     0.07440
C1515       C  0.63641774  0.43521429  0.84281562    -0.02360
C1516       C  0.66467443  0.44941088  0.82563247    -0.02360
C1517       C  0.69276165  0.43041510  0.81581794     0.07570
C1518       C  0.68938783  0.39618824  0.81656763    -0.02560
Br1519     Br  0.72615529  0.37001367  0.79898526    -0.01100
Br1520     Br  0.66019761  0.33361346  0.83063482    -0.01180
Br1521     Br  0.66406076  0.49526875  0.81294169    -0.01140
Br1522     Br  0.60124984  0.46606981  0.85489150    -0.01120
C1523       C  0.58089871  0.32207784  0.86430427    -0.02240
C1524       C  0.58962777  0.35459421  0.85258498     0.07440
C1525       C  0.57633643  0.36156023  0.82012697    -0.02360
C1526       C  0.55612057  0.33814541  0.80335966    -0.02360
C1527       C  0.53702180  0.31455586  0.82126489     0.07570
C1528       C  0.55091777  0.30594908  0.85280179    -0.02560
Br1529     Br  0.52822840  0.27846044  0.88558707    -0.01100
Br1530     Br  0.61174609  0.29315775  0.88683838    -0.01180
Br1531     Br  0.55856835  0.33600470  0.75587878    -0.01140
Br1532     Br  0.57808980  0.40359193  0.79812343    -0.01120
C1533       C  0.40997732  0.24258039  0.84608468    -0.02240
C1534       C  0.43688407  0.23532447  0.82502762     0.07440
C1535       C  0.44413493  0.20240982  0.81882882    -0.02360
C1536       C  0.42226476  0.17671460  0.83011355    -0.02360
C1537       C  0.39515199  0.18277395  0.85328397     0.07570
C1538       C  0.38714385  0.21766967  0.85647918    -0.02560
Br1539     Br  0.34193459  0.23614384  0.85864239    -0.01100
Br1540     Br  0.40419150  0.28780073  0.86030143    -0.01180
Br1541     Br  0.43043361  0.13490057  0.81009970    -0.01140
Br1542     Br  0.48724248  0.19222337  0.79959781    -0.01120
C1543       C  0.43619389  0.36069021  0.73709759    -0.02240
C1544       C  0.43831738  0.32633323  0.73872902     0.07440
C1545       C  0.42666832  0.30853575  0.71077171    -0.02360
C1546       C  0.41087836  0.32406294  0.68318890    -0.02360
C1547       C  0.41063707  0.35957299  0.67988600     0.07570
C1548       C  0.42684676  0.37674765  0.70735195    -0.02560
Br1549     Br  0.43917185  0.42280077  0.70601608    -0.01100
Br1550     Br  0.44176702  0.38641531  0.77718863    -0.01180
Br1551     Br  0.38476252  0.29336282  0.65630327    -0.01140
Br1552     Br  0.43292651  0.26179710  0.70935444    -0.01120
C1553       C  0.32691519  0.54857898  0.79762560    -0.02240
C1554       C  0.30482102  0.52592676  0.81360329     0.07440
C1555       C  0.29757532  0.53194218  0.84745986    -0.02360
C1556       C  0.31883340  0.55311430  0.86625212    -0.02360
C1557       C  0.34559600  0.57323921  0.85123890     0.07570
C1558       C  0.34693982  0.57195447  0.81536317    -0.02560
Br1559     Br  0.37309315  0.60113061  0.78682715    -0.01100
Br1560     Br  0.32279823  0.55252799  0.75035407    -0.01180
Br1561     Br  0.31172711  0.54916205  0.91374748    -0.01140
Br1562     Br  0.25629335  0.51575756  0.86905825    -0.01120
C1563       C  0.19655555  0.41381325  0.79566149    -0.02240
C1564       C  0.22477105  0.43066313  0.80928005     0.07440
C1565       C  0.22857370  0.43005835  0.84372665    -0.02360
C1566       C  0.20244570  0.41780881  0.86452797    -0.02360
C1567       C  0.17596463  0.39615525  0.85198311     0.07570
C1568       C  0.17236225  0.39667606  0.81635571    -0.02560
Br1569     Br  0.13091943  0.38381745  0.79454575    -0.01100
Br1570     Br  0.19136248  0.41402149  0.74827393    -0.01180
Br1571     Br  0.20669389  0.43066312  0.91046712    -0.01140
Br1572     Br  0.27381974  0.43636999  0.86197710    -0.01120
C1573       C  0.34019470  0.45114144  0.70403070    -0.02240
C1574       C  0.32686470  0.43382977  0.73165557     0.07440
C1575       C  0.33467660  0.40064322  0.73450095    -0.02360
C1576       C  0.34876902  0.38372681  0.70736846    -0.02360
C1577       C  0.36513015  0.40090646  0.67954905     0.07570
C1578       C  0.36287794  0.43635271  0.68121714    -0.02560
Br1579     Br  0.39242711  0.46846440  0.65863582    -0.01100
Br1580     Br  0.32637504  0.49518585  0.69550676    -0.01180
Br1581     Br  0.33918686  0.33697132  0.70933765    -0.01140
Br1582     Br  0.32747617  0.37825572  0.77655092    -0.01120
C1583       C  0.55649962  0.43709521  0.93758608    -0.02240
C1584       C  0.52533682  0.44132734  0.92122845     0.07440
C1585       C  0.52347659  0.43179299  0.88805143    -0.02360
C1586       C  0.54544934  0.40702953  0.87758541    -0.02360
C1587       C  0.57991231  0.40529517  0.89018848     0.07570
C1588       C  0.58489335  0.42418660  0.92022102    -0.02560
Br1589     Br  0.62829650  0.43493463  0.93934290    -0.01100
Br1590     Br  0.56043660  0.44932115  0.98366115    -0.01180
Br1591     Br  0.51554013  0.36964195  0.87256716    -0.01140
Br1592     Br  0.48455126  0.44236106  0.86096503    -0.01120
C1593       C  0.39857280  0.50749956  0.91144224    -0.02240
C1594       C  0.42581286  0.51506564  0.93216009     0.07440
C1595       C  0.43894297  0.54728971  0.93178218    -0.02360
C1596       C  0.42288956  0.57270930  0.91373069    -0.02360
C1597       C  0.39374454  0.56577565  0.89323043     0.07570
C1598       C  0.38805544  0.53080167  0.88808043    -0.02560
Br1599     Br  0.38462718  0.51056514  0.84466139    -0.01100
Br1600     Br  0.38050600  0.46299197  0.90980588    -0.01180
Br1601     Br  0.44438268  0.61508429  0.91711139    -0.01140
Br1602     Br  0.47996738  0.55552699  0.95592318    -0.01120
C1603       C  0.45746550  0.39408898  0.03116406    -0.02240
C1604       C  0.44087426  0.42160007  0.01613587     0.07440
C1605       C  0.41142812  0.43156268  0.03305167    -0.02360
C1606       C  0.39169251  0.40761819  0.04898795    -0.02360
C1607       C  0.40765926  0.38551810  0.07080649     0.07570
C1608       C  0.44192343  0.37724725  0.05912944    -0.02560
Br1609     Br  0.47008333  0.34297393  0.07745551    -0.01100
Br1610     Br  0.50394304  0.38192506  0.01957444    -0.01180
Br1611     Br  0.36027716  0.39027117  0.01668058    -0.01140
Br1612     Br  0.40981041  0.47494021  0.05160914    -0.01120
C1613       C  0.86666937  0.19381815  0.09405271    -0.02240
C1614       C  0.86423749  0.15860162  0.09864114     0.07440
C1615       C  0.83648839  0.14195611  0.08155423    -0.02360
C1616       C  0.81690780  0.15853036  0.05752492    -0.02360
C1617       C  0.82039780  0.19260402  0.05380132     0.07570
C1618       C  0.84218972  0.20990169  0.07499193    -0.02560
Br1619     Br  0.83253152  0.25568742  0.08317813    -0.01100
Br1620     Br  0.89808863  0.22445580  0.11514837    -0.01180
Br1621     Br  0.78586158  0.13450674  0.02932663    -0.01140
Br1622     Br  0.82566028  0.09545181  0.08829397    -0.01120
C1623       C  0.68249493  0.16528579  0.87499227    -0.02240
C1624       C  0.64685508  0.15650167  0.87290029     0.07440
C1625       C  0.62691139  0.16644819  0.90155667    -0.02360
C1626       C  0.64248502  0.17229391  0.93241430    -0.02360
C1627       C  0.67739823  0.18004918  0.93399598     0.07570
C1628       C  0.69540474  0.18128555  0.90357289    -0.02560
Br1629     Br  0.73314937  0.21156393  0.89790897    -0.01100
Br1630     Br  0.71725613  0.15427293  0.84333949    -0.01180
Br1631     Br  0.61513005  0.17058918  0.97262686    -0.01140
Br1632     Br  0.57822763  0.17302247  0.90086578    -0.01120
C1633       C  0.66890031  0.36967018  0.11950416    -0.02240
C1634       C  0.65258777  0.39667702  0.10216928     0.07440
C1635       C  0.65672307  0.39595486  0.06652057    -0.02360
C1636       C  0.67471371  0.37021791  0.05151747    -0.02360
C1637       C  0.67985604  0.34057637  0.06852801     0.07570
C1638       C  0.67715416  0.34050566  0.10282310    -0.02560
Br1639     Br  0.68719698  0.30067509  0.12687451    -0.01100
Br1640     Br  0.68418359  0.37079779  0.16502716    -0.01180
Br1641     Br  0.69588777  0.37801865  0.00901142    -0.01140
Br1642     Br  0.63484847  0.42328732  0.03372539    -0.01120
C1643       C  0.66885186  0.37227827  0.90504923    -0.02240
C1644       C  0.63189324  0.36815049  0.90340677     0.07440
C1645       C  0.61713108  0.35150408  0.93148258    -0.02360
C1646       C  0.63798890  0.33406160  0.95373517    -0.02360
C1647       C  0.67367540  0.33115742  0.94794561     0.07570
C1648       C  0.68882999  0.35050377  0.92341173    -0.02560
Br1649     Br  0.73738425  0.34801120  0.91534389    -0.01100
Br1650     Br  0.69413060  0.41264674  0.89542615    -0.01180
Br1651     Br  0.61645257  0.31321846  0.99188989    -0.01140
Br1652     Br  0.56832262  0.34900338  0.93990595    -0.01120
C1653       C  0.80880238  0.35702747  0.08279558    -0.02240
C1654       C  0.82813211  0.34047696  0.05869792     0.07440
C1655       C  0.86372496  0.33930186  0.06364194    -0.02360
C1656       C  0.87915054  0.35090524  0.09328652    -0.02360
C1657       C  0.86003332  0.36728316  0.11921335     0.07570
C1658       C  0.82353480  0.36932337  0.11275939    -0.02560
Br1659     Br  0.79077037  0.39324168  0.13932900    -0.01100
Br1660     Br  0.76255900  0.36828498  0.07210354    -0.01180
Br1661     Br  0.92781791  0.34310902  0.09614535    -0.01140
Br1662     Br  0.89296532  0.32560212  0.02721265    -0.01120
C1663       C  0.83465455  0.08220852  0.18713974    -0.02240
C1664       C  0.80071141  0.09080718  0.18084163     0.07440
C1665       C  0.79424519  0.12089538  0.16606026    -0.02360
C1666       C  0.82158967  0.14059390  0.15404109    -0.02360
C1667       C  0.85627382  0.12818655  0.15309034     0.07570
C1668       C  0.86201878  0.10267550  0.17652297    -0.02560
Br1669     Br  0.90287476  0.10144335  0.20312191    -0.01100
Br1670     Br  0.84378840  0.04130214  0.20921212    -0.01180
Br1671     Br  0.80920218  0.18578579  0.14584062    -0.01140
Br1672     Br  0.74738930  0.13400555  0.16098229    -0.01120
C1673       C  0.66212455  0.05311137  0.33960453    -0.02240
C1674       C  0.68548628  0.06825920  0.31791544     0.07440
C1675       C  0.68690743  0.10246165  0.31685579    -0.02360
C1676       C  0.66662390  0.12156923  0.33878279    -0.02360
C1677       C  0.64540531  0.10694381  0.36511962     0.07570
C1678       C  0.64327842  0.07107874  0.36362050    -0.02560
Br1679     Br  0.61230913  0.04261457  0.38904136    -0.01100
Br1680     Br  0.65404513  0.00662925  0.33273032    -0.01180
Br1681     Br  0.67389206  0.16807984  0.33244850    -0.01140
Br1682     Br  0.71899482  0.12294913  0.28594114    -0.01120
C1683       C  0.65821393  0.85482690  0.17342070    -0.02240
C1684       C  0.63057937  0.86409789  0.15219137     0.07440
C1685       C  0.62354260  0.89829938  0.15670128    -0.02360
C1686       C  0.65049879  0.92071634  0.15474538    -0.02360
C1687       C  0.67906105  0.91307806  0.17346493     0.07570
C1688       C  0.68146039  0.88003104  0.18530970    -0.02560
Br1689     Br  0.71725747  0.86929621  0.21564281    -0.01100
Br1690     Br  0.66817956  0.81040743  0.18519335    -0.01180
Br1691     Br  0.64035679  0.96559077  0.14381740    -0.01140
Br1692     Br  0.59908933  0.90985728  0.19653659    -0.01120
C1693       C  0.80364898  0.09961908  0.34066731    -0.02240
C1694       C  0.82079356  0.07890482  0.31901391     0.07440
C1695       C  0.85469988  0.08536431  0.31172354    -0.02360
C1696       C  0.87124390  0.11333975  0.32520849    -0.02360
C1697       C  0.85361148  0.13713211  0.34587728     0.07570
C1698       C  0.81801617  0.12992820  0.35111106    -0.02560
Br1699     Br  0.78665731  0.15759632  0.37423714    -0.01100
Br1700     Br  0.76380740  0.08152089  0.36200695    -0.01180
Br1701     Br  0.91822058  0.11614329  0.31287552    -0.01140
Br1702     Br  0.87928377  0.05225703  0.28720006    -0.01120
C1703       C  0.65458115  0.90104030  0.36920893    -0.02240
C1704       C  0.62394173  0.89077541  0.35158199     0.07440
C1705       C  0.62488111  0.89748648  0.31631133    -0.02360
C1706       C  0.65170166  0.91658451  0.30250516    -0.02360
C1707       C  0.68319824  0.91965652  0.31853133     0.07570
C1708       C  0.68449890  0.91092169  0.35205232    -0.02560
Br1709     Br  0.72758183  0.91405008  0.37510333    -0.01100
Br1710     Br  0.65748884  0.90432440  0.41719002    -0.01180
Br1711     Br  0.64174806  0.94418673  0.26534050    -0.01140
Br1712     Br  0.59678204  0.87766921  0.28203465    -0.01120
C1713       C  0.11822832  0.89104982  0.44915459    -0.02240
C1714       C  0.13041978  0.89414099  0.41588699     0.07440
C1715       C  0.11564390  0.92068479  0.39817944    -0.02360
C1716       C  0.08258345  0.93065722  0.40516527    -0.02360
C1717       C  0.06769927  0.92404960  0.43663659     0.07570
C1718       C  0.08664689  0.90480555  0.45900430    -0.02560
Br1719     Br  0.06808484  0.89228071  0.50167108    -0.01100
Br1720     Br  0.14991176  0.88761389  0.48483583    -0.01180
Br1721     Br  0.05903840  0.95156734  0.36882290    -0.01140
Br1722     Br  0.14322827  0.95376812  0.37549375    -0.01120
C1723       C  0.30806632  0.83466341  0.55713109    -0.02240
C1724       C  0.32231694  0.82947905  0.52577953     0.07440
C1725       C  0.35650073  0.83756545  0.52073879    -0.02360
C1726       C  0.37754798  0.84181613  0.54824697    -0.02360
C1727       C  0.36418032  0.85422449  0.57894455     0.07570
C1728       C  0.32804618  0.84779951  0.58338397    -0.02560
Br1729     Br  0.30601272  0.84737302  0.62606458    -0.01100
Br1730     Br  0.26113251  0.82217022  0.56326982    -0.01180
Br1731     Br  0.40994741  0.80680473  0.54803704    -0.01140
Br1732     Br  0.37578412  0.83659015  0.47672312    -0.01120
C1733       C  0.19828739  0.81990981  0.45873267    -0.02240
C1734       C  0.22928787  0.81525077  0.44184563     0.07440
C1735       C  0.23006830  0.81799585  0.40729461    -0.02360
C1736       C  0.20071285  0.82737205  0.39005073    -0.02360
C1737       C  0.17029278  0.83802937  0.40800019     0.07570
C1738       C  0.16851363  0.82757650  0.44115095    -0.02560
Br1739     Br  0.12627645  0.81146183  0.45843557    -0.01100
Br1740     Br  0.19628605  0.81584580  0.50614596    -0.01180
Br1741     Br  0.20551174  0.82544816  0.34179614    -0.01140
Br1742     Br  0.27293576  0.81245771  0.38378424    -0.01120
C1743       C  0.44218848  0.89675345  0.52719556    -0.02240
C1744       C  0.43596219  0.93017113  0.52004535     0.07440
C1745       C  0.42229439  0.94906654  0.54625560    -0.02360
C1746       C  0.40939614  0.93387912  0.57592599    -0.02360
C1747       C  0.41146952  0.89869841  0.58047643     0.07570
C1748       C  0.43572998  0.88402427  0.55888344    -0.02560
Br1749     Br  0.46936163  0.85342619  0.57400056    -0.01100
Br1750     Br  0.45872443  0.86562740  0.49510454    -0.01180
Br1751     Br  0.39822336  0.96433031  0.61115661    -0.01140
Br1752     Br  0.42661859  0.99618155  0.54389858    -0.01120
C1753       C  0.51216842  0.89160666  0.41642977    -0.02240
C1754       C  0.51565755  0.92489093  0.42409889     0.07440
C1755       C  0.54744096  0.94007087  0.41921806    -0.02360
C1756       C  0.57387320  0.92388339  0.40176646    -0.02360
C1757       C  0.57225610  0.88856685  0.39595567     0.07570
C1758       C  0.54090475  0.87292033  0.40795514    -0.02560
Br1759     Br  0.53378775  0.82579245  0.41188396    -0.01100
Br1760     Br  0.46691886  0.87260804  0.41264636    -0.01180
Br1761     Br  0.60452711  0.95525950  0.38090950    -0.01140
Br1762     Br  0.55319009  0.98465742  0.43403428    -0.01120
C1763       C  0.38628134  0.01282608  0.42107883    -0.02240
C1764       C  0.42187775  0.01098992  0.42252244     0.07440
C1765       C  0.44079595  0.03799008  0.40969385    -0.02360
C1766       C  0.42482211  0.06511643  0.39369081    -0.02360
C1767       C  0.38776928  0.06932869  0.39471060     0.07570
C1768       C  0.36984568  0.04216221  0.41133445    -0.02560
Br1769     Br  0.32227638  0.04260773  0.42438850    -0.01100
Br1770     Br  0.35934367  0.97308726  0.42870041    -0.01180
Br1771     Br  0.45771489  0.09061310  0.36722967    -0.01140
Br1772     Br  0.49000117  0.03715096  0.41273054    -0.01120
C1773       C  0.36246398  0.69796348  0.42910931    -0.02240
C1774       C  0.33933176  0.67906127  0.40838566     0.07440
C1775       C  0.30390753  0.68313887  0.41510453    -0.02360
C1776       C  0.29339110  0.70236018  0.44204727    -0.02360
C1777       C  0.31503875  0.72639334  0.45600952     0.07570
C1778       C  0.35043024  0.72268289  0.45071382    -0.02560
Br1779     Br  0.38386427  0.75133928  0.47132007    -0.01100
Br1780     Br  0.41154456  0.69336547  0.42722955    -0.01180
Br1781     Br  0.24953950  0.69384627  0.46109852    -0.01140
Br1782     Br  0.26827866  0.67451258  0.38371601    -0.01120
C1783       C  0.50794554  0.85907082  0.32492035    -0.02240
C1784       C  0.50517587  0.82534289  0.31788522     0.07440
C1785       C  0.53496494  0.80721718  0.32103991    -0.02360
C1786       C  0.56285848  0.81818754  0.33986195    -0.02360
C1787       C  0.56763570  0.85271815  0.34644193     0.07570
C1788       C  0.53983481  0.87307868  0.33461005    -0.02560
Br1789     Br  0.54313518  0.92047401  0.33058273    -0.01100
Br1790     Br  0.46811767  0.88638909  0.32236914    -0.01180
Br1791     Br  0.58585347  0.78159496  0.36039987    -0.01140
Br1792     Br  0.54213473  0.77194785  0.29172187    -0.01120
C1793       C  0.36912229  0.71918787  0.36001944    -0.02240
C1794       C  0.37225272  0.68414813  0.35473558     0.07440
C1795       C  0.39121632  0.67632862  0.32517224    -0.02360
C1796       C  0.41154404  0.70102153  0.30911741    -0.02360
C1797       C  0.41530315  0.73307400  0.32242303     0.07570
C1798       C  0.39420689  0.74150766  0.34895249    -0.02560
Br1799     Br  0.39507105  0.78576206  0.36679769    -0.01100
Br1800     Br  0.32610803  0.74053738  0.36852340    -0.01180
Br1801     Br  0.43524388  0.69000758  0.26945744    -0.01140
Br1802     Br  0.39271315  0.63237812  0.30580668    -0.01120
C1803       C  0.37976314  0.81053285  0.22197766    -0.02240
C1804       C  0.41486676  0.81374677  0.22903884     0.07440
C1805       C  0.43610653  0.82680957  0.20374075    -0.02360
C1806       C  0.42154583  0.84355918  0.17629768    -0.02360
C1807       C  0.38475439  0.84274337  0.17119040     0.07570
C1808       C  0.36793659  0.81823832  0.19020806    -0.02560
Br1809     Br  0.35205392  0.77995059  0.16677989    -0.01100
Br1810     Br  0.34620278  0.79660831  0.25428721    -0.01180
Br1811     Br  0.45442744  0.87125575  0.15346514    -0.01140
Br1812     Br  0.48534156  0.82456878  0.20851620    -0.01120
C1813       C  0.29517962  0.91901499  0.20846661    -0.02240
C1814       C  0.31080109  0.91884129  0.23946983     0.07440
C1815       C  0.34248147  0.90432245  0.24292230    -0.02360
C1816       C  0.36110884  0.89456724  0.21495315    -0.02360
C1817       C  0.34543204  0.89185349  0.18276026     0.07570
C1818       C  0.31272218  0.90763032  0.18005603    -0.02560
Br1819     Br  0.29134331  0.91879376  0.13892702    -0.01100
Br1820     Br  0.24838760  0.93327321  0.20558656    -0.01180
Br1821     Br  0.40950637  0.90025365  0.22169695    -0.01140
Br1822     Br  0.35991352  0.89579787  0.28678022    -0.01120
C1823       C  0.20189481  0.89765478  0.38554355    -0.02240
C1824       C  0.17075721  0.88520352  0.37054487     0.07440
C1825       C  0.16756653  0.89093212  0.33581004    -0.02360
C1826       C  0.19592618  0.90383958  0.31750285    -0.02360
C1827       C  0.22744460  0.91107079  0.33280905     0.07570
C1828       C  0.23067881  0.90539118  0.36653901    -0.02560
Br1829     Br  0.27578457  0.90436784  0.38633311    -0.01100
Br1830     Br  0.20865406  0.90413752  0.43217514    -0.01180
Br1831     Br  0.19286501  0.90911208  0.27082730    -0.01140
Br1832     Br  0.12469030  0.88598229  0.31322054    -0.01120
C1833       C  0.29393169  0.03127556  0.34689473    -0.02240
C1834       C  0.31176924  0.00760072  0.32779441     0.07440
C1835       C  0.34694087  0.01368773  0.32314460    -0.02360
C1836       C  0.36266515  0.04383079  0.33253749    -0.02360
C1837       C  0.34452468  0.06951338  0.34994437     0.07570
C1838       C  0.30830531  0.06293129  0.35382657    -0.02560
Br1839     Br  0.27540827  0.09236839  0.37375986    -0.01100
Br1840     Br  0.25580514  0.01842312  0.37540245    -0.01180
Br1841     Br  0.41004721  0.04768922  0.31908954    -0.01140
Br1842     Br  0.37622377  0.97728686  0.31168645    -0.01120
C1843       C  0.43169259  0.07060861  0.09865993    -0.02240
C1844       C  0.41809108  0.05033980  0.07412020     0.07440
C1845       C  0.38274352  0.05333382  0.06720427    -0.02360
C1846       C  0.36248670  0.07785985  0.08222945    -0.02360
C1847       C  0.37473874  0.09651925  0.11004017     0.07570
C1848       C  0.41178034  0.09603692  0.11248830    -0.02560
Br1849     Br  0.43934256  0.13560898  0.11261309    -0.01100
Br1850     Br  0.47922847  0.06675620  0.11033473    -0.01180
Br1851     Br  0.32310096  0.08915262  0.05646458    -0.01140
Br1852     Br  0.35958889  0.02078711  0.03984138    -0.01120
C1853       C  0.55971812  0.07987952  0.89638200    -0.02240
C1854       C  0.57669918  0.07470098  0.92674308     0.07440
C1855       C  0.61153224  0.08350790  0.92832764    -0.02360
C1856       C  0.62894352  0.09472537  0.89965843    -0.02360
C1857       C  0.61048208  0.10681355  0.87107308     0.07570
C1858       C  0.57395782  0.10063043  0.87214021    -0.02560
Br1859     Br  0.53763885  0.12322241  0.84881397    -0.01100
Br1860     Br  0.51902477  0.05509093  0.88361770    -0.01180
Br1861     Br  0.67869000  0.09417680  0.90228541    -0.01140
Br1862     Br  0.63652439  0.08088950  0.96959811    -0.01120
C1863       C  0.59992574  0.92649763  0.07430944    -0.02240
C1864       C  0.56666439  0.93607348  0.08218802     0.07440
C1865       C  0.54828795  0.91746075  0.10572777    -0.02360
C1866       C  0.56186191  0.88789854  0.11856322    -0.02360
C1867       C  0.59200248  0.87311220  0.10423901     0.07570
C1868       C  0.61102815  0.89467006  0.08161486    -0.02560
Br1869     Br  0.65271351  0.88484677  0.05747729    -0.01100
Br1870     Br  0.63227911  0.95903808  0.05599314    -0.01180
Br1871     Br  0.54049845  0.87234679  0.15919324    -0.01140
Br1872     Br  0.50691259  0.93501727  0.12409983    -0.01120
C1873       C  0.39326606  0.92575625  0.13292232    -0.02240
C1874       C  0.38601451  0.89108232  0.12979421     0.07440
C1875       C  0.40157016  0.87442116  0.10175130    -0.02360
C1876       C  0.41795319  0.89248352  0.07618932    -0.02360
C1877       C  0.42147360  0.92654486  0.07882999     0.07570
C1878       C  0.41290348  0.94204693  0.10859624    -0.02560
Br1879     Br  0.43195104  0.98492477  0.11798479    -0.01100
Br1880     Br  0.37826496  0.95475182  0.16796709    -0.01180
Br1881     Br  0.43505815  0.87097536  0.03692351    -0.01140
Br1882     Br  0.40103918  0.82677357  0.09685394    -0.01120
C1883       C  0.37234450  0.10408415  0.91344281    -0.02240
C1884       C  0.39272262  0.12897183  0.89620568     0.07440
C1885       C  0.42898569  0.12640115  0.90154057    -0.02360
C1886       C  0.44203673  0.09947688  0.91977088    -0.02360
C1887       C  0.42225142  0.07070910  0.92556794     0.07570
C1888       C  0.38661226  0.07398095  0.92336880    -0.02560
Br1889     Br  0.35623213  0.03618621  0.93023735    -0.01100
Br1890     Br  0.32375196  0.10659421  0.92147555    -0.01180
Br1891     Br  0.48270098  0.10675300  0.94517971    -0.01140
Br1892     Br  0.46368996  0.15819451  0.88824442    -0.01120
C1893       C  0.04428949  0.87329791  0.19684302    -0.02240
C1894       C  0.04247291  0.83903036  0.18934275     0.07440
C1895       C  0.06580532  0.82660732  0.16660321    -0.02360
C1896       C  0.09232698  0.84704941  0.15428837    -0.02360
C1897       C  0.09021113  0.88263317  0.15494967     0.07570
C1898       C  0.06740937  0.89492835  0.17996944    -0.02560
Br1899     Br  0.06477062  0.94142481  0.19133836    -0.01100
Br1900     Br  0.01288724  0.89226632  0.22860418    -0.01180
Br1901     Br  0.13517276  0.82408284  0.15307512    -0.01140
Br1902     Br  0.06506095  0.78018124  0.15628576    -0.01120
C1903       C  0.94884670  0.65020468  0.33399120    -0.02240
C1904       C  0.93545855  0.68019620  0.32291807     0.07440
C1905       C  0.90034136  0.68487589  0.32741859    -0.02360
C1906       C  0.87902938  0.65976768  0.34214366    -0.02360
C1907       C  0.89314506  0.63028594  0.35709297     0.07570
C1908       C  0.93012229  0.62918898  0.35517666    -0.02560
Br1909     Br  0.96097457  0.60709577  0.38515695    -0.01100
Br1910     Br  0.99355209  0.63569964  0.31939881    -0.01180
Br1911     Br  0.83034488  0.66742557  0.33966347    -0.01140
Br1912     Br  0.88124584  0.72469449  0.31001645    -0.01120
C1913       C  0.88906890  0.70046193  0.17372068    -0.02240
C1914       C  0.92429304  0.69397940  0.16965292     0.07440
C1915       C  0.93428184  0.67339389  0.14411721    -0.02360
C1916       C  0.91025515  0.66261516  0.12108221    -0.02360
C1917       C  0.87430566  0.66006709  0.12945443     0.07570
C1918       C  0.86396798  0.68331693  0.15428703    -0.02560
Br1919     Br  0.81632761  0.69106289  0.16388632    -0.01100
Br1920     Br  0.87527693  0.73009644  0.20831026    -0.01180
Br1921     Br  0.92688666  0.67447821  0.07742382    -0.01140
Br1922     Br  0.98223582  0.66516895  0.13661058    -0.01120
C1923       C  0.05027825  0.85106852  0.36440995    -0.02240
C1924       C  0.05162710  0.82549214  0.34154808     0.07440
C1925       C  0.08349247  0.81085198  0.33578633    -0.02360
C1926       C  0.11220181  0.81880933  0.35561498    -0.02360
C1927       C  0.11163460  0.84613790  0.37800038     0.07570
C1928       C  0.07735432  0.85549152  0.38656074    -0.02560
Br1929     Br  0.05821070  0.84109212  0.42811075    -0.01100
Br1930     Br  0.00825965  0.87424613  0.37156520    -0.01180
Br1931     Br  0.14085289  0.78179532  0.36219803    -0.01140
Br1932     Br  0.09012486  0.78375065  0.29725090    -0.01120
C1933       C  0.11698968  0.66954433  0.35613159    -0.02240
C1934       C  0.09846288  0.65740351  0.38525623     0.07440
C1935       C  0.06282651  0.66614277  0.38580971    -0.02360
C1936       C  0.04934151  0.68675393  0.36117978    -0.02360
C1937       C  0.06547652  0.68978775  0.33000384     0.07570
C1938       C  0.09967683  0.68104302  0.32766129    -0.02560
Br1939     Br  0.12344390  0.68781311  0.28608819    -0.01100
Br1940     Br  0.16604162  0.67497829  0.35426298    -0.01180
Br1941     Br  0.00781103  0.71036657  0.37080916    -0.01140
Br1942     Br  0.02698440  0.64757562  0.41332818    -0.01120
C1943       C  0.84126320  0.68555553  0.42848826    -0.02240
C1944       C  0.80608463  0.68134722  0.43360588     0.07440
C1945       C  0.79188115  0.65047246  0.42480880    -0.02360
C1946       C  0.81026553  0.62715481  0.40599247    -0.02360
C1947       C  0.84721308  0.62897222  0.40271681     0.07570
C1948       C  0.86188988  0.65906038  0.41682482    -0.02560
Br1949     Br  0.91041986  0.66612034  0.42237339    -0.01100
Br1950     Br  0.86110947  0.72808500  0.43815512    -0.01180
Br1951     Br  0.77909297  0.59843409  0.38235493    -0.01140
Br1952     Br  0.74611292  0.63857157  0.43964949    -0.01120
C1953       C  0.65278452  0.81980020  0.43588120    -0.02240
C1954       C  0.68275368  0.81626194  0.41713315     0.07440
C1955       C  0.68034855  0.81949101  0.38281349    -0.02360
C1956       C  0.64888381  0.82808763  0.36808237    -0.02360
C1957       C  0.62093475  0.84171347  0.38768784     0.07570
C1958       C  0.62379863  0.83572977  0.42300739    -0.02560
Br1959     Br  0.59622396  0.85474004  0.45799821    -0.01100
Br1960     Br  0.65235636  0.80265605  0.48019558    -0.01180
Br1961     Br  0.64750697  0.82293994  0.32040931    -0.01140
Br1962     Br  0.72112490  0.81489276  0.35622034    -0.01120
C1963       C  0.70797807  0.85973745  0.59357196    -0.02240
C1964       C  0.69607404  0.83487753  0.57323354     0.07440
C1965       C  0.66116760  0.83214441  0.56896511    -0.02360
C1966       C  0.63935009  0.85814884  0.57807381    -0.02360
C1967       C  0.65180755  0.88758904  0.59528517     0.07570
C1968       C  0.68798851  0.88738389  0.60180779    -0.02560
Br1969     Br  0.71400825  0.92264617  0.62130924    -0.01100
Br1970     Br  0.74616557  0.84677737  0.61947696    -0.01180
Br1971     Br  0.59434187  0.85286521  0.55945967    -0.01140
Br1972     Br  0.64331605  0.78857902  0.56074495    -0.01120
C1973       C  0.65144203  0.68708202  0.37318907    -0.02240
C1974       C  0.63167005  0.65784984  0.37940859     0.07440
C1975       C  0.62801815  0.65062296  0.41449734    -0.02360
C1976       C  0.65225590  0.66111488  0.43797194    -0.02360
C1977       C  0.67451477  0.68740727  0.43065364     0.07570
C1978       C  0.67387447  0.70019763  0.39768203    -0.02560
Br1979     Br  0.70933505  0.73024843  0.38231247    -0.01100
Br1980     Br  0.64851645  0.71173919  0.33257599    -0.01180
Br1981     Br  0.65203151  0.63996698  0.48109143    -0.01140
Br1982     Br  0.58454054  0.64410048  0.43643672    -0.01120
C1983       C  0.85404608  0.69933251  0.56930762    -0.02240
C1984       C  0.82329878  0.70611296  0.58649872     0.07440
C1985       C  0.81951485  0.69328009  0.61832224    -0.02360
C1986       C  0.83829981  0.66533896  0.62546194    -0.02360
C1987       C  0.87334526  0.66311568  0.61521272     0.07570
C1988       C  0.88001761  0.67984009  0.58412229    -0.02560
Br1989     Br  0.92125845  0.67570662  0.55850492    -0.01100
Br1990     Br  0.85988362  0.71700262  0.52528106    -0.01180
Br1991     Br  0.80840810  0.63011609  0.61172122    -0.01140
Br1992     Br  0.77942939  0.70213300  0.64438265    -0.01120
C1993       C  0.14959879  0.09399327  0.82791951    -0.02240
C1994       C  0.18103829  0.08075953  0.83545109     0.07440
C1995       C  0.18885162  0.07518656  0.86924023    -0.02360
C1996       C  0.16546751  0.08431866  0.89506457    -0.02360
C1997       C  0.13791692  0.10539831  0.88773886     0.07570
C1998       C  0.12695836  0.10259180  0.85347659    -0.02560
Br1999     Br  0.07977924  0.09933314  0.84024743    -0.01100
Br2000     Br  0.13657606  0.09851911  0.78186459    -0.01180
Br2001     Br  0.17214409  0.06810704  0.93965140    -0.01140
Br2002     Br  0.23340962  0.05832260  0.88020378    -0.01120
C2003       C  0.16919165  0.93750370  0.68148726    -0.02240
C2004       C  0.20345341  0.93015827  0.68455126     0.07440
C2005       C  0.21468244  0.89952719  0.67314512    -0.02360
C2006       C  0.19319330  0.87885595  0.65447011    -0.02360
C2007       C  0.15672340  0.88220022  0.65571260     0.07570
C2008       C  0.14573575  0.91258121  0.67177290    -0.02560
Br2009     Br  0.10098653  0.92053779  0.68969781    -0.01100
Br2010     Br  0.15407341  0.98042631  0.69583144    -0.01180
Br2011     Br  0.21851828  0.85126149  0.62508244    -0.01140
Br2012     Br  0.25969889  0.88432514  0.68447244    -0.01120
C2013       C  0.33594987  0.06149838  0.64839764    -0.02240
C2014       C  0.30904872  0.08048884  0.66150754     0.07440
C2015       C  0.31601252  0.11487453  0.66171968    -0.02360
C2016       C  0.35032313  0.12538753  0.65985004    -0.02360
C2017       C  0.37151234  0.11080348  0.63561729     0.07570
C2018       C  0.36272483  0.07641057  0.63006745    -0.02560
Br2019     Br  0.37884585  0.04710241  0.59558299    -0.01100
Br2020     Br  0.34582001  0.01866542  0.66343269    -0.01180
Br2021     Br  0.36803317  0.12234364  0.70425296    -0.01140
Br2022     Br  0.28301838  0.14745867  0.67300112    -0.01120
C2023       C  0.35887233  0.91607020  0.68695349    -0.02240
C2024       C  0.33225406  0.93642470  0.67811419     0.07440
C2025       C  0.32170675  0.93646545  0.64436339    -0.02360
C2026       C  0.33955162  0.91785888  0.62004312    -0.02360
C2027       C  0.36540754  0.89525041  0.62987080     0.07570
C2028       C  0.36904557  0.89150168  0.66525044    -0.02560
Br2029     Br  0.37006624  0.84972712  0.68826086    -0.01100
Br2030     Br  0.37994183  0.91905343  0.73005520    -0.01180
Br2031     Br  0.32769682  0.92456799  0.57386323    -0.01140
Br2032     Br  0.28208683  0.96069055  0.63088278    -0.01120
C2033       C  0.33367025  0.07355927  0.83282352    -0.02240
C2034       C  0.31040843  0.08617307  0.81058384     0.07440
C2035       C  0.31436927  0.11963566  0.80038971    -0.02360
C2036       C  0.33882404  0.14073731  0.81548818    -0.02360
C2037       C  0.35717104  0.12968299  0.84374593     0.07570
C2038       C  0.35988986  0.09407605  0.84475306    -0.02560
Br2039     Br  0.40274665  0.07088556  0.84712442    -0.01100
Br2040     Br  0.33322916  0.02696349  0.84277704    -0.01180
Br2041     Br  0.34571456  0.18322153  0.79503774    -0.01140
Br2042     Br  0.28240121  0.13934351  0.76988862    -0.01120
C2043       C  0.06357781  0.40427315  0.07838848    -0.02240
C2044       C  0.08193588  0.43383556  0.07311517     0.07440
C2045       C  0.11654867  0.43450354  0.08054882    -0.02360
C2046       C  0.13236334  0.40585722  0.09270019    -0.02360
C2047       C  0.11244768  0.37813846  0.10591847     0.07570
C2048       C  0.07639517  0.37962638  0.09918392    -0.02560
Br2049     Br  0.04012868  0.35459468  0.12064937    -0.01100
Br2050     Br  0.02139866  0.39552273  0.05537397    -0.01180
Br2051     Br  0.18104950  0.40496650  0.08481093    -0.01140
Br2052     Br  0.14278568  0.47381885  0.07019496    -0.01120
C2053       C  0.04498250  0.58727707  0.88430891    -0.02240
C2054       C  0.05659614  0.57709520  0.91609220     0.07440
C2055       C  0.09180026  0.57802020  0.92141794    -0.02360
C2056       C  0.11324140  0.58181399  0.89360019    -0.02360
C2057       C  0.10366942  0.60318017  0.86742305     0.07570
C2058       C  0.06742499  0.60281532  0.86115820    -0.02560
Br2059     Br  0.04596679  0.61654628  0.81984498    -0.01100
Br2060     Br  0.99931625  0.57586328  0.86999719    -0.01180
Br2061     Br  0.12775085  0.53869431  0.88009600    -0.01140
Br2062     Br  0.11051719  0.56023448  0.96141661    -0.01120
C2063       C  0.88474534  0.61526841  0.05821926    -0.02240
C2064       C  0.87502718  0.60987324  0.09224034     0.07440
C2065       C  0.89887209  0.59049750  0.11080372    -0.02360
C2066       C  0.93231653  0.58499405  0.09915504    -0.02360
C2067       C  0.94131158  0.58971531  0.06549633     0.07570
C2068       C  0.91678170  0.60467113  0.04522718    -0.02560
Br2069     Br  0.93048817  0.62002063  0.00229479    -0.01100
Br2070     Br  0.86028196  0.64399951  0.02957185    -0.01180
Br2071     Br  0.96712722  0.57576197  0.13199995    -0.01140
Br2072     Br  0.88906177  0.56853267  0.15230281    -0.01120
C2073       C  0.09865365  0.41460994  0.94906606    -0.02240
C2074       C  0.07328282  0.43007170  0.92937178     0.07440
C2075       C  0.08161314  0.43426958  0.89531425    -0.02360
C2076       C  0.11347470  0.42487315  0.88255118    -0.02360
C2077       C  0.13448263  0.40162626  0.89955882     0.07570
C2078       C  0.12874590  0.40055340  0.93455432    -0.02560
Br2079     Br  0.16159424  0.38153549  0.96388507    -0.01100
Br2080     Br  0.08925494  0.40451900  0.99433507    -0.01180
Br2081     Br  0.12968695  0.45337805  0.84705529    -0.01140
Br2082     Br  0.04917981  0.44994074  0.86287725    -0.01120
C2083       C  0.91979905  0.43810242  0.06962421    -0.02240
C2084       C  0.95389866  0.44321200  0.07813908     0.07440
C2085       C  0.96427838  0.43327349  0.10997448    -0.02360
C2086       C  0.94342663  0.41263330  0.12976015    -0.02360
C2087       C  0.90686888  0.41051062  0.12448958     0.07570
C2088       C  0.89597534  0.42552525  0.09345267    -0.02560
Br2089     Br  0.84884592  0.43377027  0.08255737    -0.01100
Br2090     Br  0.90537272  0.45185350  0.02610430    -0.01180
Br2091     Br  0.97131195  0.38443540  0.15711784    -0.01140
Br2092     Br  0.00784127  0.44802934  0.12794774    -0.01120
C2093       C  0.16719609  0.87697529  0.10666776    -0.02240
C2094       C  0.13112540  0.88236559  0.10563526     0.07440
C2095       C  0.11217725  0.86097176  0.08331035    -0.02360
C2096       C  0.12780475  0.83365903  0.06810204    -0.02360
C2097       C  0.16292122  0.83028545  0.06992989     0.07570
C2098       C  0.18216286  0.85576484  0.08400886    -0.02560
Br2099     Br  0.22741879  0.86614281  0.06878079    -0.01100
Br2100     Br  0.19757327  0.88656327  0.14329655    -0.01180
Br2101     Br  0.10210106  0.80147564  0.04293755    -0.01140
Br2102     Br  0.06475099  0.86535989  0.07336287    -0.01120
C2103       C  0.19558133  0.64362513  0.92529062    -0.02240
C2104       C  0.18685604  0.67615350  0.93217413     0.07440
C2105       C  0.15809491  0.68818538  0.91718919    -0.02360
C2106       C  0.15050395  0.67640703  0.88551145    -0.02360
C2107       C  0.15382412  0.64217927  0.87845587     0.07570
C2108       C  0.17721768  0.62543979  0.90074659    -0.02560
Br2109     Br  0.19414687  0.58161439  0.89446288    -0.01100
Br2110     Br  0.23345811  0.62513723  0.94899230    -0.01180
Br2111     Br  0.16038205  0.70931623  0.85233465    -0.01140
Br2112     Br  0.12086234  0.68966798  0.94814325    -0.01120
C2113       C  0.30663440  0.66296964  0.89829618    -0.02240
C2114       C  0.31327317  0.66845075  0.93190391     0.07440
C2115       C  0.33261708  0.64538400  0.94911278    -0.02360
C2116       C  0.34705624  0.61775693  0.93321371    -0.02360
C2117       C  0.34562242  0.61470883  0.89763926     0.07570
C2118       C  0.32254785  0.63710717  0.88125405    -0.02560
Br2119     Br  0.31652302  0.63961270  0.83383407    -0.01100
Br2120     Br  0.27737087  0.69290813  0.87424429    -0.01180
Br2121     Br  0.36707030  0.58635459  0.96315632    -0.01140
Br2122     Br  0.34638581  0.65655669  0.99284250    -0.01120
C2123       C  0.32585425  0.69289299  0.08335386    -0.02240
C2124       C  0.29984506  0.67292850  0.06889418     0.07440
C2125       C  0.30781266  0.64037509  0.06055678    -0.02360
C2126       C  0.33925391  0.62691501  0.07036772    -0.02360
C2127       C  0.36214281  0.64497819  0.09202799     0.07570
C2128       C  0.35712673  0.67957846  0.09366480    -0.02560
Br2129     Br  0.39378005  0.71090221  0.10293064    -0.01100
Br2130     Br  0.31994454  0.73928887  0.08931055    -0.01180
Br2131     Br  0.34675277  0.58151109  0.05761215    -0.01140
Br2132     Br  0.27469448  0.61298227  0.03766668    -0.01120
C2133       C  0.31264238  0.83868342  0.07435316    -0.02240
C2134       C  0.28770000  0.81745564  0.08756125     0.07440
C2135       C  0.28119915  0.81936164  0.12251806    -0.02360
C2136       C  0.30389639  0.83641633  0.14397597    -0.02360
C2137       C  0.33200460  0.85540666  0.13074038     0.07570
C2138       C  0.32936780  0.86135202  0.09519824    -0.02560
Br2139     Br  0.33654890  0.90381527  0.07342788    -0.01100
Br2140     Br  0.32339308  0.83887466  0.02747182    -0.01180
Br2141     Br  0.29186912  0.83517273  0.19099286    -0.01140
Br2142     Br  0.23912516  0.80161681  0.14200694    -0.01120
C2143       C  0.44512658  0.65664720  0.65135651    -0.02240
C2144       C  0.43959122  0.67226933  0.68140064     0.07440
C2145       C  0.40562065  0.68251304  0.68868054    -0.02360
C2146       C  0.37766576  0.67349933  0.66752678    -0.02360
C2147       C  0.38363215  0.65408507  0.63867413     0.07570
C2148       C  0.41904143  0.65571949  0.62825723    -0.02560
Br2149     Br  0.43460592  0.67010373  0.58495738    -0.01100
Br2150     Br  0.49064122  0.64357929  0.63840642    -0.01180
Br2151     Br  0.33447100  0.69534401  0.67415636    -0.01140
Br2152     Br  0.39747127  0.71184685  0.72508976    -0.01120
C2153       C  0.45930814  0.84924887  0.66708904    -0.02240
C2154       C  0.45532688  0.81518049  0.66838844     0.07440
C2155       C  0.43093842  0.79966750  0.64828618    -0.02360
C2156       C  0.40799266  0.81797005  0.62939790    -0.02360
C2157       C  0.41253473  0.85298071  0.62540390     0.07570
C2158       C  0.43914856  0.86795287  0.64544091    -0.02560
Br2159     Br  0.44938339  0.91422867  0.64633526    -0.01100
Br2160     Br  0.49445315  0.86998230  0.69395797    -0.01180
Br2161     Br  0.36688790  0.79324551  0.61949606    -0.01140
Br2162     Br  0.42743246  0.75232960  0.64789112    -0.01120
C2163       C  0.39869800  0.67896672  0.84076735    -0.02240
C2164       C  0.42545964  0.67288730  0.81937424     0.07440
C2165       C  0.43907223  0.64069795  0.81804268    -0.02360
C2166       C  0.42426148  0.61471401  0.83735617    -0.02360
C2167       C  0.39561278  0.62105004  0.85851390     0.07570
C2168       C  0.39079683  0.65572927  0.86471154    -0.02560
Br2169     Br  0.39362820  0.67631214  0.90781152    -0.01100
Br2170     Br  0.37661858  0.72114864  0.84165666    -0.01180
Br2171     Br  0.44360108  0.57168865  0.83257523    -0.01140
Br2172     Br  0.47755875  0.63169415  0.78950864    -0.01120
C2173       C  0.58623796  0.68257991  0.82002976    -0.02240
C2174       C  0.55164138  0.68296594  0.82723676     0.07440
C2175       C  0.53995807  0.66875367  0.85717447    -0.02360
C2176       C  0.56209790  0.65108753  0.87817890    -0.02360
C2177       C  0.59847204  0.65100706  0.87154983     0.07570
C2178       C  0.60944456  0.67145029  0.84390780    -0.02560
Br2179     Br  0.65531067  0.68640081  0.83589871    -0.01100
Br2180     Br  0.60153558  0.69449573  0.77581099    -0.01180
Br2181     Br  0.54041045  0.63693478  0.91941290    -0.01140
Br2182     Br  0.49349766  0.67661705  0.87114160    -0.01120
C2183       C  0.56787788  0.83608032  0.64322058    -0.02240
C2184       C  0.58435462  0.82349539  0.67086106     0.07440
C2185       C  0.61376366  0.83977555  0.68158257    -0.02360
C2186       C  0.62764552  0.86683895  0.66306710    -0.02360
C2187       C  0.60776973  0.88407661  0.63790259     0.07570
C2188       C  0.57540534  0.86810742  0.63158768    -0.02560
Br2189     Br  0.53768369  0.88581211  0.60865778    -0.01100
Br2190     Br  0.53667815  0.80813596  0.61870267    -0.01180
Br2191     Br  0.67294484  0.87931295  0.67703918    -0.01140
Br2192     Br  0.63601910  0.82261797  0.72047527    -0.01120
C2193       C  0.17162347  0.16347058  0.37104691    -0.02240
C2194       C  0.13524318  0.16021729  0.36995860     0.07440
C2195       C  0.11867216  0.17342774  0.39888810    -0.02360
C2196       C  0.13484518  0.17343924  0.42969190    -0.02360
C2197       C  0.17035656  0.17675329  0.43093263     0.07570
C2198       C  0.18859318  0.16989857  0.40137660    -0.02560
Br2199     Br  0.23682399  0.16414349  0.40234484    -0.01100
Br2200     Br  0.19996852  0.16641764  0.33174385    -0.01180
Br2201     Br  0.10704070  0.17500120  0.46932632    -0.01140
Br2202     Br  0.09419309  0.21425278  0.39722893    -0.01120
C2203       C  0.33995304  0.14906030  0.58304816    -0.02240
C2204       C  0.37400705  0.15816273  0.59382654     0.07440
C2205       C  0.38225579  0.19267395  0.59004064    -0.02360
C2206       C  0.35716456  0.21558158  0.58153243    -0.02360
C2207       C  0.32386955  0.20609447  0.57328708     0.07570
C2208       C  0.31501999  0.17287405  0.57551683    -0.02560
Br2209     Br  0.26831822  0.16037656  0.56633086    -0.01100
Br2210     Br  0.32764089  0.10539816  0.56897115    -0.01180
Br2211     Br  0.36894026  0.26144254  0.57845822    -0.01140
Br2212     Br  0.42765293  0.21192679  0.58997679    -0.01120
C2213       C  0.36341725  0.34025293  0.56947279    -0.02240
C2214       C  0.32844952  0.33243806  0.57154214     0.07440
C2215       C  0.31266429  0.33755236  0.60276309    -0.02360
C2216       C  0.32901275  0.35629460  0.62757494    -0.02360
C2217       C  0.36580752  0.35878645  0.62832706     0.07570
C2218       C  0.38204263  0.34556872  0.59881045    -0.02560
Br2219     Br  0.42818512  0.32936605  0.59669065    -0.01100
Br2220     Br  0.38723979  0.34196580  0.52731049    -0.01180
Br2221     Br  0.29634076  0.38086805  0.65342647    -0.01140
Br2222     Br  0.27106240  0.31541372  0.61563369    -0.01120
C2223       C  0.15881591  0.33846937  0.38767891    -0.02240
C2224       C  0.12713328  0.35032002  0.40280060     0.07440
C2225       C  0.12019665  0.33671516  0.43509972    -0.02360
C2226       C  0.13688345  0.30837540  0.44572594    -0.02360
C2227       C  0.16989522  0.30077652  0.43385698     0.07570
C2228       C  0.18087467  0.31650867  0.40467594    -0.02560
Br2229     Br  0.22591269  0.30750178  0.38770278    -0.01100
Br2230     Br  0.17262868  0.34784615  0.34236413    -0.01180
Br2231     Br  0.11271517  0.27986501  0.47683921    -0.01140
Br2232     Br  0.09759164  0.35865892  0.47173927    -0.01120
C2233       C  0.31825278  0.17949076  0.38813369    -0.02240
C2234       C  0.31619862  0.18241990  0.42240564     0.07440
C2235       C  0.32518488  0.15512553  0.44176799    -0.02360
C2236       C  0.34062788  0.12678144  0.42766317    -0.02360
C2237       C  0.34272110  0.12232962  0.39194887     0.07570
C2238       C  0.32739381  0.14926658  0.37324290    -0.02560
Br2239     Br  0.31317141  0.14652226  0.32749941    -0.01100
Br2240     Br  0.30741777  0.21759312  0.36157438    -0.01180
Br2241     Br  0.36220792  0.09968868  0.46075253    -0.01140
Br2242     Br  0.31571721  0.15706121  0.48879184    -0.01120
C2243       C  0.17745874  0.32756948  0.61674447    -0.02240
C2244       C  0.18360011  0.32470704  0.58271110     0.07440
C2245       C  0.17653911  0.35180827  0.56214622    -0.02360
C2246       C  0.15719941  0.37872707  0.57377930    -0.02360
C2247       C  0.14997547  0.38238205  0.60865664     0.07570
C2248       C  0.16332838  0.35669396  0.62998887    -0.02560
Br2249     Br  0.16167237  0.35929925  0.67809208    -0.01100
Br2250     Br  0.18640732  0.29034309  0.64493381    -0.01180
Br2251     Br  0.13529068  0.40311409  0.53899536    -0.01140
Br2252     Br  0.19333949  0.35165811  0.51698730    -0.01120
C2253       C  0.20490594  0.40644958  0.16501513    -0.02240
C2254       C  0.18905378  0.42876574  0.18545111     0.07440
C2255       C  0.15352604  0.42761290  0.18756150    -0.02360
C2256       C  0.13453619  0.40272853  0.17063723    -0.02360
C2257       C  0.15121695  0.37532068  0.15418992     0.07570
C2258       C  0.18814913  0.37764827  0.15427650    -0.02560
Br2259     Br  0.22072283  0.34654317  0.13811769    -0.01100
Br2260     Br  0.24682039  0.42100456  0.14440619    -0.01180
Br2261     Br  0.08546651  0.40769028  0.17227079    -0.01140
Br2262     Br  0.13139404  0.46430892  0.20804523    -0.01120
C2263       C  0.37090844  0.58654036  0.16866213    -0.02240
C2264       C  0.36189898  0.60454081  0.13930400     0.07440
C2265       C  0.32571268  0.60352850  0.13323636    -0.02360
C2266       C  0.30629193  0.57609970  0.14137312    -0.02360
C2267       C  0.31256135  0.56248556  0.17198058     0.07570
C2268       C  0.34538001  0.56730689  0.18591112    -0.02560
Br2269     Br  0.35523087  0.54592368  0.22731145    -0.01100
Br2270     Br  0.41601292  0.58790151  0.18731576    -0.01180
Br2271     Br  0.26364226  0.56812246  0.11896735    -0.01140
Br2272     Br  0.29741394  0.64113895  0.14108172    -0.01120
C2273       C  0.30885124  0.57629383  0.34973131    -0.02240
C2274       C  0.30354371  0.58218907  0.31590839     0.07440
C2275       C  0.31124469  0.61423429  0.30380886    -0.02360
C2276       C  0.31896965  0.64052455  0.32548693    -0.02360
C2277       C  0.32752898  0.63458885  0.35935248     0.07570
C2278       C  0.31661882  0.60272404  0.37135991    -0.02560
Br2279     Br  0.29248540  0.59822754  0.41267230    -0.01100
Br2280     Br  0.30162645  0.53270866  0.36794899    -0.01180
Br2281     Br  0.31157047  0.68401426  0.30767052    -0.01140
Br2282     Br  0.31353054  0.62253495  0.25646838    -0.01120
C2283       C  0.19112969  0.43010247  0.37843517    -0.02240
C2284       C  0.18964510  0.44255878  0.34632922     0.07440
C2285       C  0.15906468  0.43983516  0.32915478    -0.02360
C2286       C  0.13441421  0.41629276  0.33854541    -0.02360
C2287       C  0.13274072  0.40456990  0.37243976     0.07570
C2288       C  0.16226465  0.41366401  0.39256205    -0.02560
Br2289     Br  0.16584422  0.40440182  0.43960839    -0.01100
Br2290     Br  0.23304193  0.43601535  0.40254004    -0.01180
Br2291     Br  0.11483624  0.39522395  0.29954702    -0.01140
Br2292     Br  0.15335618  0.46600072  0.28981824    -0.01120
C2293       C  0.11617413  0.59295056  0.35676633    -0.02240
C2294       C  0.13503808  0.60767168  0.38427888     0.07440
C2295       C  0.17170661  0.60519908  0.38115821    -0.02360
C2296       C  0.18664757  0.59372257  0.35147539    -0.02360
C2297       C  0.16821396  0.57646244  0.32756867     0.07570
C2298       C  0.13274624  0.57550397  0.33067610    -0.02560
Br2299     Br  0.10719375  0.55126194  0.29785062    -0.01100
Br2300     Br  0.06694130  0.59427839  0.35349074    -0.01180
Br2301     Br  0.23081382  0.60998857  0.33876014    -0.01140
Br2302     Br  0.20588264  0.62099213  0.41199430    -0.01120
C2303       C  0.34704930  0.42191636  0.11944922    -0.02240
C2304       C  0.36494427  0.39173182  0.12605206     0.07440
C2305       C  0.35982095  0.38135219  0.16035490    -0.02360
C2306       C  0.33099891  0.39056644  0.17813373    -0.02360
C2307       C  0.32182195  0.42372963  0.17610529     0.07570
C2308       C  0.33201766  0.44009165  0.14612793    -0.02560
Br2309     Br  0.32170808  0.48563288  0.13820695    -0.01100
Br2310     Br  0.32886592  0.43467294  0.07736044    -0.01180
Br2311     Br  0.31370772  0.35959480  0.21066032    -0.01140
Br2312     Br  0.39371149  0.38882431  0.19425904    -0.01120
C2313       C  0.94058915  0.12046285  0.83665738    -0.02240
C2314       C  0.90455533  0.12623681  0.84167203     0.07440
C2315       C  0.89297947  0.15769552  0.82910274    -0.02360
C2316       C  0.91629121  0.18259326  0.81859394    -0.02360
C2317       C  0.94984566  0.17462808  0.81101145     0.07570
C2318       C  0.96043683  0.14213828  0.81709113    -0.02560
Br2319     Br  0.00301370  0.12607336  0.79885718    -0.01100
Br2320     Br  0.96922399  0.08900651  0.85927408    -0.01180
Br2321     Br  0.90203829  0.22748433  0.81316188    -0.01140
Br2322     Br  0.84554487  0.16856668  0.82369247    -0.01120
C2323       C  0.82546255  0.13336624  0.89214174    -0.02240
C2324       C  0.86192886  0.13083267  0.88819750     0.07440
C2325       C  0.88173930  0.15693790  0.90360611    -0.02360
C2326       C  0.86569547  0.18367318  0.91957156    -0.02360
C2327       C  0.82992017  0.18334510  0.92465032     0.07570
C2328       C  0.81173578  0.15469059  0.91544321    -0.02560
Br2329     Br  0.76958616  0.14001931  0.93665729    -0.01100
Br2330     Br  0.78987934  0.11685286  0.86287606    -0.01180
Br2331     Br  0.89434284  0.21820137  0.93832963    -0.01140
Br2332     Br  0.93139761  0.15707524  0.90539989    -0.01120
C2333       C  0.60316476  0.93870356  0.87647968    -0.02240
C2334       C  0.60779758  0.90488870  0.88568875     0.07440
C2335       C  0.58128926  0.89220849  0.90733522    -0.02360
C2336       C  0.55944932  0.91324103  0.92571611    -0.02360
C2337       C  0.56075221  0.94726850  0.92090945     0.07570
C2338       C  0.58241896  0.95938099  0.89591203    -0.02560
Br2339     Br  0.58808759  0.00550983  0.89195228    -0.01100
Br2340     Br  0.62400215  0.95993180  0.83820300    -0.01180
Br2341     Br  0.52805695  0.89595568  0.95877704    -0.01140
Br2342     Br  0.56937053  0.84676567  0.90953466    -0.01120
C2343       C  0.62055495  0.83333730  0.82700077    -0.02240
C2344       C  0.61916959  0.86629703  0.83801705     0.07440
C2345       C  0.59565462  0.88510034  0.81981801    -0.02360
C2346       C  0.56358102  0.87116192  0.81286031    -0.02360
C2347       C  0.56072117  0.83688427  0.81094648     0.07570
C2348       C  0.59060811  0.81841583  0.81454318    -0.02560
Br2349     Br  0.59115758  0.77346525  0.80012854    -0.01100
Br2350     Br  0.66263088  0.81157535  0.81734112    -0.01180
Br2351     Br  0.52694391  0.89896020  0.79990533    -0.01140
Br2352     Br  0.61500296  0.90534021  0.78111552    -0.01120
C2353       C  0.82712942  0.64693654  0.83773857    -0.02240
C2354       C  0.86348803  0.64788933  0.84557457     0.07440
C2355       C  0.88199009  0.62053717  0.83096727    -0.02360
C2356       C  0.86523854  0.59355085  0.81515598    -0.02360
C2357       C  0.83037143  0.59379024  0.80977337     0.07570
C2358       C  0.81261373  0.62234020  0.81719467    -0.02560
Br2359     Br  0.76624215  0.62629519  0.80124335    -0.01100
Br2360     Br  0.79091530  0.67043097  0.85952812    -0.01180
Br2361     Br  0.88955402  0.55526978  0.79959762    -0.01140
Br2362     Br  0.92944006  0.61302042  0.83630809    -0.01120
C2363       C  0.92953754  0.64523105  0.91249065    -0.02240
C2364       C  0.89560014  0.64390277  0.89948489     0.07440
C2365       C  0.87718321  0.61359447  0.90652932    -0.02360
C2366       C  0.89418610  0.58455752  0.91635291    -0.02360
C2367       C  0.92892646  0.58553479  0.92421812     0.07570
C2368       C  0.94582877  0.61658669  0.92374683    -0.02560
Br2369     Br  0.99144148  0.62159338  0.94140131    -0.01100
Br2370     Br  0.95254928  0.68564594  0.92472964    -0.01180
Br2371     Br  0.86954053  0.54335562  0.92067111    -0.01140
Br2372     Br  0.82808186  0.61160493  0.90784876    -0.01120
C2373       C  0.89013531  0.93832396  0.60636723    -0.02240
C2374       C  0.90304944  0.91446853  0.63018157     0.07440
C2375       C  0.93802770  0.90784528  0.62511805    -0.02360
C2376       C  0.95459877  0.91369931  0.59445997    -0.02360
C2377       C  0.94338396  0.93839298  0.57354036     0.07570
C2378       C  0.91094883  0.95085644  0.57976197    -0.02560
Br2379     Br  0.89617351  0.98602293  0.55089152    -0.01100
Br2380     Br  0.84704134  0.95996047  0.60871561    -0.01180
Br2381     Br  0.99501769  0.89052140  0.58237277    -0.01140
Br2382     Br  0.96795784  0.91288268  0.66134595    -0.01120
C2383       C  0.82603092  0.88922742  0.61808125    -0.02240
C2384       C  0.85295728  0.87438738  0.63528991     0.07440
C2385       C  0.86201028  0.84305713  0.62168387    -0.02360
C2386       C  0.85488743  0.83438661  0.58868094    -0.02360
C2387       C  0.82989502  0.85100725  0.57086189     0.07570
C2388       C  0.81660659  0.87973881  0.58539673    -0.02560
Br2389     Br  0.78398617  0.90584587  0.56176236    -0.01100
Br2390     Br  0.79191677  0.90988245  0.64365269    -0.01180
Br2391     Br  0.87762791  0.79709428  0.56946251    -0.01140
Br2392     Br  0.86065484  0.80446385  0.64955560    -0.01120
C2393       C  0.70855851  0.91080885  0.81099773    -0.02240
C2394       C  0.72719354  0.93670393  0.82628916     0.07440
C2395       C  0.71590353  0.94497774  0.85922647    -0.02360
C2396       C  0.68586614  0.92997483  0.87328346    -0.02360
C2397       C  0.66981203  0.90219768  0.85705262     0.07570
C2398       C  0.69008786  0.88907593  0.83126406    -0.02560
Br2399     Br  0.72283807  0.85743789  0.84561555    -0.01100
Br2400     Br  0.71128317  0.89916466  0.76492256    -0.01180
Br2401     Br  0.66885530  0.94998672  0.91383042    -0.01140
Br2402     Br  0.74120736  0.97407867  0.88803423    -0.01120
C2403       C  0.81809964  0.94355214  0.71104954    -0.02240
C2404       C  0.82790828  0.93603916  0.74359073     0.07440
C2405       C  0.86160709  0.92623918  0.74843745    -0.02360
C2406       C  0.88293117  0.92004432  0.72059681    -0.02360
C2407       C  0.86907545  0.92017017  0.68716104     0.07570
C2408       C  0.84313033  0.94361592  0.68534385    -0.02560
Br2409     Br  0.86318857  0.98713485  0.68326278    -0.01100
Br2410     Br  0.77388690  0.96257767  0.70467234    -0.01180
Br2411     Br  0.93040983  0.91661312  0.73066068    -0.01140
Br2412     Br  0.87828302  0.92225949  0.79326777    -0.01120
C2413       C  0.82360648  0.05692982  0.79808350    -0.02240
C2414       C  0.81261499  0.03014104  0.81765873     0.07440
C2415       C  0.82091713  0.02961208  0.85115017    -0.02360
C2416       C  0.83445761  0.05753574  0.86617947    -0.02360
C2417       C  0.85228332  0.08238198  0.84661729     0.07570
C2418       C  0.84657222  0.08077398  0.81123425    -0.02560
Br2419     Br  0.87348971  0.10344777  0.77781806    -0.01100
Br2420     Br  0.80994361  0.05857016  0.75212582    -0.01180
Br2421     Br  0.82881752  0.05820607  0.91402966    -0.01140
Br2422     Br  0.82267699  0.98845793  0.87500393    -0.01120
C2423       C  0.81028170  0.92088007  0.11166594    -0.02240
C2424       C  0.82868374  0.89234432  0.11838885     0.07440
C2425       C  0.82361234  0.88043319  0.15260426    -0.02360
C2426       C  0.81041142  0.90140335  0.17773236    -0.02360
C2427       C  0.80189720  0.93395375  0.17016286     0.07570
C2428       C  0.80668442  0.94437711  0.13655714    -0.02560
Br2429     Br  0.80032174  0.98834301  0.12007087    -0.01100
Br2430     Br  0.76444496  0.91297443  0.09645820    -0.01180
Br2431     Br  0.80928203  0.88725269  0.22364335    -0.01140
Br2432     Br  0.83308934  0.83605480  0.16823822    -0.01120
C2433       C  0.89650242  0.88511876  0.14506615    -0.02240
C2434       C  0.88433422  0.86469907  0.11797847     0.07440
C2435       C  0.89456235  0.83102988  0.11867930    -0.02360
C2436       C  0.91629087  0.81983675  0.14377971    -0.02360
C2437       C  0.92085830  0.83784493  0.17337193     0.07570
C2438       C  0.91127372  0.87107266  0.17348603    -0.02560
Br2439     Br  0.91539166  0.89750110  0.21319514    -0.01100
Br2440     Br  0.89201265  0.93272477  0.14525452    -0.01180
Br2441     Br  0.94277872  0.78139433  0.13469462    -0.01140
Br2442     Br  0.87580503  0.79618650  0.09178949    -0.01120
C2443       C  0.16019944  0.88727626  0.85082579    -0.02240
C2444       C  0.13255031  0.90529588  0.86634839     0.07440
C2445       C  0.13890864  0.94031876  0.86891110    -0.02360
C2446       C  0.16898735  0.95514945  0.85554246    -0.02360
C2447       C  0.19456495  0.93714392  0.83978472     0.07570
C2448       C  0.19093106  0.90274292  0.84018776    -0.02560
Br2449     Br  0.22990580  0.87589801  0.82889574    -0.01100
Br2450     Br  0.15701097  0.84117774  0.83912526    -0.01180
Br2451     Br  0.17697053  0.00048200  0.86312191    -0.01140
Br2452     Br  0.11182807  0.97121518  0.89388758    -0.01120
C2453       C  0.15365108  0.88042163  0.92812596    -0.02240
C2454       C  0.12650142  0.86365990  0.90966468     0.07440
C2455       C  0.12832390  0.82813065  0.91023249    -0.02360
C2456       C  0.15442684  0.81275297  0.92815416    -0.02360
C2457       C  0.18388978  0.83002472  0.93795222     0.07570
C2458       C  0.18335508  0.86408068  0.93797329    -0.02560
Br2459     Br  0.22393596  0.88842337  0.95094704    -0.01100
Br2460     Br  0.15235132  0.92521758  0.94363176    -0.01180
Br2461     Br  0.14898577  0.76777217  0.94172744    -0.01140
Br2462     Br  0.10277541  0.79677503  0.88314397    -0.01120
C2463       C  0.93517087  0.71446336  0.81071012    -0.02240
C2464       C  0.93487942  0.74757798  0.82011976     0.07440
C2465       C  0.92131786  0.75535076  0.85105912    -0.02360
C2466       C  0.91262875  0.73040991  0.87372462    -0.02360
C2467       C  0.91029689  0.69622415  0.86260955     0.07570
C2468       C  0.93067087  0.68982241  0.83446778    -0.02560
Br2469     Br  0.97639704  0.67626739  0.84405809    -0.01100
Br2470     Br  0.94154058  0.70107206  0.76651209    -0.01180
Br2471     Br  0.90388454  0.74710545  0.91822991    -0.01140
Br2472     Br  0.90402161  0.79911796  0.85759051    -0.01120
C2473       C  0.04735983  0.85518117  0.80688307    -0.02240
C2474       C  0.01902786  0.84025377  0.82290845     0.07440
C2475       C  0.01866018  0.84028817  0.85760583    -0.02360
C2476       C  0.04766091  0.84876359  0.87616851    -0.02360
C2477       C  0.07742710  0.86457440  0.86143561     0.07570
C2478       C  0.07617094  0.86720263  0.82521062    -0.02560
Br2479     Br  0.10809173  0.89232906  0.79737427    -0.01100
Br2480     Br  0.04429814  0.86427570  0.75971216    -0.01180
Br2481     Br  0.04367544  0.83602927  0.92240072    -0.01140
Br2482     Br  0.97574982  0.83499623  0.88075635    -0.01120
C2483       C  0.92805972  0.85065371  0.67498845    -0.02240
C2484       C  0.89581719  0.86568149  0.67928488     0.07440
C2485       C  0.87610789  0.85296297  0.70695300    -0.02360
C2486       C  0.89243485  0.83875793  0.73432010    -0.02360
C2487       C  0.92781848  0.83368837  0.73323126     0.07570
C2488       C  0.94530249  0.83852304  0.70292412    -0.02560
Br2489     Br  0.99258299  0.82692038  0.69896303    -0.01100
Br2490     Br  0.94346482  0.83448617  0.63241276    -0.01180
Br2491     Br  0.86669055  0.82993638  0.77453209    -0.01140
Br2492     Br  0.82676755  0.85656393  0.70910884    -0.01120
C2493       C  0.92881778  0.05413101  0.93335837    -0.02240
C2494       C  0.92570312  0.02216392  0.92144674     0.07440
C2495       C  0.91446363  0.01783655  0.88883219    -0.02360
C2496       C  0.90745895  0.04570009  0.86943354    -0.02360
C2497       C  0.90022284  0.07719790  0.88507100     0.07570
C2498       C  0.90927576  0.07884435  0.91956178    -0.02560
Br2499     Br  0.88866066  0.10397688  0.95438393    -0.01100
Br2500     Br  0.96803178  0.06696166  0.95864300    -0.01180
Br2501     Br  0.91132132  0.03898280  0.82194123    -0.01140
Br2502     Br  0.90999549  0.97421454  0.86995137    -0.01120
C2503       C  0.92933249  0.93739991  0.04746357    -0.02240
C2504       C  0.91381956  0.94430218  0.01748399     0.07440
C2505       C  0.87887572  0.93694265  0.01474883    -0.02360
C2506       C  0.86016521  0.92270487  0.04179858    -0.02360
C2507       C  0.87708913  0.90839012  0.07030387     0.07570
C2508       C  0.91374305  0.91554816  0.07051116    -0.02560
Br2509     Br  0.94867526  0.88939577  0.09055623    -0.01100
Br2510     Br  0.97366753  0.95669279  0.05529989    -0.01180
Br2511     Br  0.81229194  0.91834699  0.03298562    -0.01140
Br2512     Br  0.85716471  0.94324248  0.97205383    -0.01120
C2513       C  0.02930333  0.94824221  0.90340722    -0.02240
C2514       C  0.01723149  0.94071444  0.93565629     0.07440
C2515       C  0.04026919  0.92318394  0.95558266    -0.02360
C2516       C  0.06844478  0.90594841  0.94148916    -0.02360
C2517       C  0.07552847  0.90703521  0.90584376     0.07570
C2518       C  0.05265284  0.92774678  0.88742843    -0.02560
Br2519     Br  0.05477829  0.93613880  0.84026363    -0.01100
Br2520     Br  0.02795667  0.99311762  0.88567602    -0.01180
Br2521     Br  0.09064006  0.87775216  0.97388292    -0.01140
Br2522     Br  0.03876790  0.92943773  0.00309175    -0.01120
C2523       C  0.67032489  0.87280554  0.92270808    -0.02240
C2524       C  0.65162443  0.85760771  0.89723428     0.07440
C2525       C  0.65669324  0.82259272  0.89596503    -0.02360
C2526       C  0.68690807  0.80895564  0.90976092    -0.02360
C2527       C  0.71279810  0.82977766  0.92326348     0.07570
C2528       C  0.70367874  0.86293192  0.92878056    -0.02560
Br2529     Br  0.73570020  0.89765502  0.93957006    -0.01100
Br2530     Br  0.64556019  0.88646294  0.96143156    -0.01180
Br2531     Br  0.69064857  0.76173749  0.91266931    -0.01140
Br2532     Br  0.62026740  0.79081646  0.88815064    -0.01120
C2533       C  0.79250850  0.83297751  0.03572951    -0.02240
C2534       C  0.81028150  0.83287128  0.00528138     0.07440
C2535       C  0.84499685  0.84187105  0.00516604    -0.02360
C2536       C  0.86189738  0.84928824  0.03499513    -0.02360
C2537       C  0.84329179  0.85523292  0.06535541     0.07570
C2538       C  0.80888980  0.84305674  0.06528211    -0.02560
Br2539     Br  0.78593259  0.83030135  0.10498769    -0.01100
Br2540     Br  0.74526156  0.81875030  0.03754290    -0.01180
Br2541     Br  0.91083013  0.84692875  0.03252711    -0.01140
Br2542     Br  0.86921603  0.84784286  0.96341057    -0.01120
C2543       C  0.82264643  0.72337362  0.93563099    -0.02240
C2544       C  0.81241094  0.74937901  0.91481854     0.07440
C2545       C  0.82178847  0.74850976  0.88109844    -0.02360
C2546       C  0.84095319  0.72212109  0.86821180    -0.02360
C2547       C  0.85330204  0.69584120  0.88934234     0.07570
C2548       C  0.84373812  0.69799456  0.92359177    -0.02560
Br2549     Br  0.86602593  0.67423813  0.95750900    -0.01100
Br2550     Br  0.80905619  0.72292678  0.98227143    -0.01180
Br2551     Br  0.84844235  0.72225161  0.82030922    -0.01140
Br2552     Br  0.81101694  0.78511951  0.85248990    -0.01120
C2553       C  0.42715289  0.14125488  0.19372603    -0.02240
C2554       C  0.43475387  0.17340934  0.18234877     0.07440
C2555       C  0.41022809  0.18863299  0.16182019    -0.02360
C2556       C  0.37863402  0.17329002  0.15526398    -0.02360
C2557       C  0.37476411  0.13832563  0.15840478     0.07570
C2558       C  0.39869577  0.12338086  0.18088612    -0.02560
Br2559     Br  0.39629856  0.07767318  0.19378590    -0.01100
Br2560     Br  0.45809550  0.11937796  0.22351830    -0.01180
Br2561     Br  0.34174612  0.20433647  0.15131056    -0.01140
Br2562     Br  0.42027173  0.22736028  0.13538579    -0.01120
C2563       C  0.62088041  0.36512867  0.31792435    -0.02240
C2564       C  0.63000478  0.35816876  0.35138820     0.07440
C2565       C  0.60947861  0.33281417  0.36582295    -0.02360
C2566       C  0.57638528  0.32545608  0.35474116    -0.02360
C2567       C  0.56581326  0.33505562  0.32269216     0.07570
C2568       C  0.58791170  0.35675879  0.30536645    -0.02560
Br2569     Br  0.57100868  0.37957663  0.26741840    -0.01100
Br2570     Br  0.65622983  0.36946335  0.28480039    -0.01180
Br2571     Br  0.54655385  0.30244432  0.38587834    -0.01140
Br2572     Br  0.63007487  0.29648915  0.38728631    -0.01120
C2573       C  0.55922182  0.15214728  0.31573483    -0.02240
C2574       C  0.55971087  0.18629993  0.31615717     0.07440
C2575       C  0.58461778  0.20271357  0.33442060    -0.02360
C2576       C  0.60336226  0.18638379  0.35904051    -0.02360
C2577       C  0.60095099  0.15083883  0.36267036     0.07570
C2578       C  0.58096338  0.13438930  0.33698743    -0.02560
Br2579     Br  0.57461754  0.08749888  0.33337169    -0.01100
Br2580     Br  0.52573910  0.12997374  0.28819625    -0.01180
Br2581     Br  0.63377364  0.21611795  0.38262855    -0.01140
Br2582     Br  0.59510996  0.24759489  0.32144303    -0.01120
C2583       C  0.57379917  0.33635164  0.13468540    -0.02240
C2584       C  0.57997548  0.32873879  0.16802835     0.07440
C2585       C  0.60042368  0.35010486  0.18609984    -0.02360
C2586       C  0.60797368  0.38238636  0.17496576    -0.02360
C2587       C  0.60474816  0.39071067  0.14026899     0.07570
C2588       C  0.58835880  0.36515580  0.12025538    -0.02560
Br2589     Br  0.58292135  0.36797696  0.07253792    -0.01100
Br2590     Br  0.54619254  0.30683813  0.10788804    -0.01180
Br2591     Br  0.62550879  0.41041625  0.20967049    -0.01140
Br2592     Br  0.62564629  0.32997676  0.22122994    -0.01120
C2593       C  0.41739318  0.30875164  0.17012654    -0.02240
C2594       C  0.44899263  0.32278509  0.17738287     0.07440
C2595       C  0.45862265  0.35274304  0.16332495    -0.02360
C2596       C  0.43805479  0.36725169  0.13888863    -0.02360
C2597       C  0.40933777  0.34936249  0.12500823     0.07570
C2598       C  0.39791638  0.32073094  0.14362423    -0.02560
Br2599     Br  0.35408278  0.29891011  0.13855130    -0.01100
Br2600     Br  0.39973697  0.27598053  0.20093208    -0.01180
Br2601     Br  0.44671163  0.41364063  0.12985120    -0.01140
Br2602     Br  0.49693249  0.37549472  0.18279799    -0.01120
C2603       C  0.42674397  0.17208130  0.35525461    -0.02240
C2604       C  0.42158702  0.17919578  0.32169462     0.07440
C2605       C  0.40053114  0.15812701  0.30314801    -0.02360
C2606       C  0.38727521  0.12812529  0.31651341    -0.02360
C2607       C  0.38968137  0.12126783  0.35189168     0.07570
C2608       C  0.40941015  0.14542755  0.37059718    -0.02560
Br2609     Br  0.41757215  0.14231824  0.41781374    -0.01100
Br2610     Br  0.45962190  0.19794391  0.38064787    -0.01180
Br2611     Br  0.36331286  0.10160824  0.28342821    -0.01140
Br2612     Br  0.38585721  0.17376543  0.26024633    -0.01120
C2613       C  0.58182377  0.44333467  0.39933755    -0.02240
C2614       C  0.55834736  0.42356468  0.41811095     0.07440
C2615       C  0.56818013  0.39203625  0.42740540    -0.02360
C2616       C  0.60079788  0.38056840  0.41862753    -0.02360
C2617       C  0.62328211  0.39925766  0.39667009     0.07570
C2618       C  0.61515739  0.43288691  0.39342354    -0.02560
Br2619     Br  0.64954429  0.46771734  0.39192929    -0.01100
Br2620     Br  0.57004676  0.48429966  0.37796871    -0.01180
Br2621     Br  0.61556297  0.34451781  0.44617330    -0.01140
Br2622     Br  0.53596915  0.36336229  0.45058399    -0.01120
C2623       C  0.41525519  0.60163067  0.54565709    -0.02240
C2624       C  0.43790502  0.58113831  0.56254206     0.07440
C2625       C  0.43402232  0.57700955  0.59709686    -0.02360
C2626       C  0.40577780  0.58972130  0.61397039    -0.02360
C2627       C  0.38068680  0.60929305  0.59712140     0.07570
C2628       C  0.38674346  0.61537466  0.56234089    -0.02560
Br2629     Br  0.36401031  0.64917872  0.53782315    -0.01100
Br2630     Br  0.42747979  0.61670360  0.50148611    -0.01180
Br2631     Br  0.40426702  0.58155957  0.66184582    -0.01140
Br2632     Br  0.46991186  0.55680352  0.62299953    -0.01120
C2633       C  0.40947863  0.62025946  0.38074265    -0.02240
C2634       C  0.37948628  0.63201612  0.39676461     0.07440
C2635       C  0.36999276  0.61426344  0.42681248    -0.02360
C2636       C  0.38450588  0.58377328  0.43479093    -0.02360
C2637       C  0.41109082  0.57138562  0.41579895     0.07570
C2638       C  0.42132315  0.58835967  0.38700493    -0.02560
Br2639     Br  0.45303385  0.56890162  0.35628928    -0.01100
Br2640     Br  0.44549392  0.65002958  0.36609946    -0.01180
Br2641     Br  0.36656337  0.55683435  0.47089925    -0.01140
Br2642     Br  0.34300801  0.63163904  0.46289960    -0.01120
C2643       C  0.41049268  0.43604108  0.57420343    -0.02240
C2644       C  0.44428261  0.42774998  0.56734762     0.07440
C2645       C  0.46004995  0.40633376  0.58902619    -0.02360
C2646       C  0.44534768  0.39782984  0.62011288    -0.02360
C2647       C  0.40965238  0.40256150  0.62703578     0.07570
C2648       C  0.39238492  0.42138089  0.60140402    -0.02560
Br2649     Br  0.34392910  0.42956157  0.60191197    -0.01100
Br2650     Br  0.38935550  0.46767076  0.54546161    -0.01180
Br2651     Br  0.47640035  0.37589742  0.64818447    -0.01140
Br2652     Br  0.50099305  0.38574235  0.57306539    -0.01120
C2653       C  0.53679584  0.59510234  0.39661740    -0.02240
C2654       C  0.55004598  0.56982365  0.41518763     0.07440
C2655       C  0.58501738  0.56367384  0.41248502    -0.02360
C2656       C  0.60620803  0.58328204  0.39102421    -0.02360
C2657       C  0.59184942  0.60795715  0.36931127     0.07570
C2658       C  0.55523749  0.60953967  0.37033189    -0.02560
Br2659     Br  0.52639089  0.61585427  0.33251921    -0.01100
Br2660     Br  0.49878439  0.61708224  0.41581262    -0.01180
Br2661     Br  0.65462503  0.57582806  0.39399501    -0.01140
Br2662     Br  0.60402634  0.53227696  0.44278469    -0.01120
C2663       C  0.58591955  0.40079548  0.55368750    -0.02240
C2664       C  0.57288084  0.42892521  0.56845590     0.07440
C2665       C  0.57180855  0.42905598  0.60330378    -0.02360
C2666       C  0.59043064  0.40558226  0.62171872    -0.02360
C2667       C  0.59963749  0.37367295  0.60773843     0.07570
C2668       C  0.59153392  0.37207335  0.57262602    -0.02560
Br2669     Br  0.58027240  0.33328239  0.54739854    -0.01100
Br2670     Br  0.59649726  0.40139343  0.50719135    -0.01180
Br2671     Br  0.60170528  0.42398573  0.66408442    -0.01140
Br2672     Br  0.54172342  0.45898628  0.62671417    -0.01120
loop_ 
_geom_bond_atom_site_label_1 
_geom_bond_atom_site_label_2 
_geom_bond_distance 
_geom_bond_site_symmetry_2 
_ccdc_geom_bond_type 
O1           Ni7   1.903       .  S
O1           C22   1.265       .  A
O2          Ni25   1.915       .  S
O2           C11   1.285       .  A
O3           Ni7   1.858       .  S
O3          Ni25   1.871       .  S
O3          Ni19   1.912       .  S
O3           H26   0.966       .  S
C4           O21   1.278       .  A
C4           O13   1.270       .  A
C4         C2637   1.485       .  S
O5          Ni24   1.886       .  S
O5           C11   1.261       .  A
O6          Ni24   1.915       .  S
O6            C8   1.272       .  A
Ni7          O10   1.923       .  S
Ni7          O12   1.886       .  S
C8           O18   1.282       .  A
C8         C2654   1.491       .  S
O9          Ni25   1.951       .  S
O9           C15   1.288       .  A
O10          C15   1.278       .  A
C11        C2614   1.494       .  S
O12          C14   1.264       .  A
O13         Ni24   1.916       .  S
C14          O20   1.291       .  A
C14        C2644   1.492       .  S
C15        C2664   1.513       .  S
H16          O17   0.966       .  S
O17         Ni25   1.941       .  S
O17         Ni19   1.895       .  S
O17         Ni24   1.900       .  S
O18         Ni19   1.958       .  S
Ni19         O23   1.923       .  S
Ni19         O21   1.926       .  S
O20         Ni25   1.983       .  S
C22          O23   1.276       .  A
C22        C2624   1.493       .  S
O27         Ni33   1.926       .  S
O27          C48   1.268       .  A
O28         Ni51   1.948       .  S
O28          C37   1.284       .  A
O29         Ni33   1.887       .  S
O29         Ni51   1.902       .  S
O29         Ni45   1.914       .  S
O29          H52   0.966       .  S
C30          O47   1.271       .  A
C30          O39   1.275       .  A
C30        C2604   1.496       .  S
O31         Ni50   1.914       .  S
O31          C37   1.269       .  A
O32         Ni50   1.905       .  S
O32          C34   1.272       .  A
Ni33         O36   1.922       .  S
Ni33         O38   1.885       .  S
C34          O44   1.278       .  A
C34        C2574   1.482       .  S
O35         Ni51   1.921       .  S
O35          C41   1.281       .  A
O36          C41   1.275       .  A
C37        C2567   1.526       .  S
O38          C40   1.267       .  A
O39         Ni50   1.927       .  S
C40          O46   1.281       .  A
C40        C2594   1.462       .  S
C41        C2584   1.497       .  S
H42          O43   0.966       .  S
O43         Ni51   1.925       .  S
O43         Ni45   1.895       .  S
O43         Ni50   1.878       .  S
O44         Ni45   1.938       .  S
Ni45         O49   1.900       .  S
Ni45         O47   1.913       .  S
O46         Ni51   1.943       .  S
C48          O49   1.271       .  A
C48        C2554   1.512       .  S
C53        C2534   1.501   1_556  S
C53          C54   1.398       .  A
C53          C58   1.403       .  A
C54          C55   1.401       .  A
C54          H59   1.083       .  S
C55        C2544   1.507       .  S
C55          C56   1.415       .  A
C56          C57   1.420       .  A
C56          H60   1.079       .  S
C57        C2527   1.522       .  S
C57          C58   1.411       .  A
C58          H61   1.076       .  S
C62        C2504   1.511   1_556  S
C62          C63   1.431       .  A
C62          C67   1.405       .  A
C63          C64   1.428       .  A
C63          H68   1.080       .  S
C64        C2514   1.541   1_655  S
C64          C65   1.399       .  A
C65          C66   1.385       .  A
C65          H69   1.060       .  S
C66        C2494   1.481   1_565  S
C66          C67   1.396       .  A
C67          H70   1.083   1_565  S
C71        C2474   1.521   1_655  S
C71          C72   1.412       .  A
C71          C76   1.415       .  A
C72          C73   1.409       .  A
C72          H77   1.082       .  S
C73        C2464   1.484       .  S
C73          C74   1.391       .  A
C74          C75   1.404       .  A
C74          H78   1.084       .  S
C75        C2487   1.488       .  S
C75          C76   1.413       .  A
C76          H79   1.081       .  S
C80        C2444   1.615       .  S
C80        C2454   1.608       .  S
C80        C2477   1.624       .  S
C80        C2517   1.620       .  S
C81        C2424   1.628       .  S
C81        C2434   1.577       .  S
C81        C2507   1.642       .  S
C81        C2537   1.605       .  S
C82        C2414   1.480   1_565  S
C82          C83   1.387       .  A
C82          C87   1.405       .  A
C83          C84   1.390       .  A
C83          H88   1.085       .  S
C84        C2404   1.488       .  S
C84          C85   1.415       .  A
C85          C86   1.429       .  A
C85          H89   1.079       .  S
C86        C2394   1.532       .  S
C86          C87   1.414       .  A
C87          H90   1.075   1_565  S
C91        C2374   1.628       .  S
C91        C2384   1.617       .  S
C91        C2407   1.643       .  S
C91        C2484   1.598       .  S
C92        C2354   1.642       .  S
C92        C2364   1.609       .  S
C92        C2467   1.614       .  S
C92        C2547   1.598       .  S
C93        C2334   1.615       .  S
C93        C2344   1.586       .  S
C93        C2397   1.601       .  S
C93        C2524   1.608       .  S
C94        C2314   1.602       .  S
C94        C2324   1.593       .  S
C94        C2417   1.588       .  S
C94        C2497   1.598       .  S
O95        Ni101   1.934       .  S
O95         C116   1.278       .  A
O96        Ni119   1.879       .  S
O96         C105   1.263       .  A
O97        Ni101   1.894       .  S
O97        Ni119   1.888       .  S
O97        Ni113   1.924       .  S
O97         H120   0.966       .  S
C98         O115   1.278       .  A
C98         O107   1.285       .  A
C98        C2297   1.506       .  S
O99        Ni118   1.945       .  S
O99         C105   1.272       .  A
O100       Ni118   1.877       .  S
O100        C102   1.264       .  A
Ni101       O104   1.964       .  S
Ni101       O106   1.908       .  S
C102        O112   1.286       .  A
C102       C2274   1.511       .  S
O103       Ni119   1.911       .  S
O103        C109   1.269       .  A
O104        C109   1.284       .  A
C105       C2267   1.479       .  S
O106        C108   1.266       .  A
O107       Ni118   1.957       .  S
C108        O114   1.281       .  A
C108       C2254   1.491       .  S
C109       C2307   1.519       .  S
H110        O111   0.966       .  S
O111       Ni119   1.919       .  S
O111       Ni113   1.891       .  S
O111       Ni118   1.893       .  S
O112       Ni113   1.973       .  S
Ni113       O117   1.905       .  S
Ni113       O115   1.937       .  S
O114       Ni119   1.966       .  S
C116        O117   1.273       .  A
C116       C2284   1.483       .  S
O121       Ni127   1.936       .  S
O121        C142   1.270       .  A
O122       Ni145   1.923       .  S
O122        C131   1.274       .  A
O123       Ni127   1.913       .  S
O123       Ni145   1.927       .  S
O123       Ni139   1.920       .  S
O123        H146   0.966       .  S
C124        O141   1.266       .  A
C124        O133   1.276       .  A
C124       C2214   1.514       .  S
O125       Ni144   1.934       .  S
O125        C131   1.269       .  A
O126       Ni144   1.874       .  S
O126        C128   1.263       .  A
Ni127       O130   1.962       .  S
Ni127       O132   1.867       .  S
C128        O138   1.287       .  A
C128       C2207   1.492       .  S
O129       Ni145   1.903       .  S
O129        C135   1.264       .  A
O130        C135   1.280       .  A
C131       C2234   1.509       .  S
O132        C134   1.249       .  A
O133       Ni144   1.943       .  S
C134        O140   1.292       .  A
C134       C2227   1.515       .  S
C135       C2197   1.511       .  S
H136        O137   0.966       .  S
O137       Ni145   1.924       .  S
O137       Ni139   1.925       .  S
O137       Ni144   1.928       .  S
O138       Ni139   1.985       .  S
Ni139       O143   1.910       .  S
Ni139       O141   1.912       .  S
O140       Ni145   2.022       .  S
C142        O143   1.268       .  A
C142       C2244   1.502       .  S
O147       Ni153   1.927       .  S
O147        C168   1.270       .  A
O148       Ni171   1.901       .  S
O148        C157   1.271       .  A
O149       Ni153   1.893       .  S
O149       Ni171   1.893       .  S
O149       Ni165   1.918       .  S
O149        H172   0.966       .  S
C150        O167   1.256       .  A
C150        O159   1.281       .  A
C150       C2164   1.473       .  S
O151       Ni170   1.928       .  S
O151        C157   1.274       .  A
O152       Ni170   1.889       .  S
O152        C154   1.268       .  A
Ni153       O156   1.934       .  S
Ni153       O158   1.882       .  S
C154        O164   1.286       .  A
C154       C2174   1.483       .  S
O155       Ni171   1.941       .  S
O155        C161   1.281       .  A
O156        C161   1.281       .  A
C157       C2347   1.473       .  S
O158        C160   1.261       .  A
O159       Ni170   1.939       .  S
C160        O166   1.278       .  A
C160       C2154   1.476       .  S
C161       C2184   1.496       .  S
H162        O163   0.966       .  S
O163       Ni171   1.925       .  S
O163       Ni165   1.890       .  S
O163       Ni170   1.896       .  S
O164       Ni165   1.964       .  S
Ni165       O169   1.890       .  S
Ni165       O167   1.874       .  S
O166       Ni171   1.942       .  S
C168        O169   1.266       .  A
C168       C2144   1.492       .  S
O173       Ni179   1.944       .  S
O173        C194   1.272       .  A
O174       Ni197   1.896   1_556  S
O174        C183   1.272       .  A
O175       Ni179   1.890       .  S
O175       Ni197   1.892       .  S
O175       Ni191   1.917       .  S
O175        H198   0.966       .  S
C176        O193   1.274       .  A
C176        O185   1.277       .  A
C176       C2114   1.495       .  S
O177       Ni196   1.926       .  S
O177        C183   1.273       .  A
O178       Ni196   1.921       .  S
O178        C180   1.272       .  A
Ni179       O182   1.953       .  S
Ni179       O184   1.859       .  S
C180        O190   1.274       .  A
C180       C2104   1.483       .  S
O181       Ni197   1.885       .  S
O181        C187   1.264       .  A
O182        C187   1.286       .  A
C183       C2457   1.489       .  S
O184        C186   1.257       .  A
O185       Ni196   1.925       .  S
C186        O192   1.293       .  A
C186       C2134   1.511       .  S
C187       C2097   1.473       .  S
H188        O189   0.966       .  S
O189       Ni197   1.906   1_556  S
O189       Ni191   1.888   1_556  S
O189       Ni196   1.893       .  S
O190       Ni191   1.937   1_556  S
Ni191       O195   1.875       .  S
Ni191       O193   1.911   1_554  S
O192       Ni197   1.981       .  S
C194        O195   1.266       .  A
C194       C2124   1.503       .  S
O199       Ni205   1.911   1_655  S
O199        C220   1.265       .  A
O200       Ni223   1.930       .  S
O200        C209   1.278       .  A
O201       Ni205   1.903       .  S
O201       Ni223   1.900   1_554  S
O201       Ni217   1.928   1_454  S
O201        H224   0.966       .  S
C202        O219   1.267       .  A
C202        O211   1.285       .  A
C202       C2367   1.508       .  S
O203       Ni222   1.933   1_455  S
O203        C209   1.271       .  A
O204       Ni222   1.863   1_455  S
O204        C206   1.259       .  A
Ni205       O208   1.948       .  S
Ni205       O210   1.866   1_455  S
C206        O216   1.294       .  A
C206       C2054   1.495       .  S
O207       Ni223   1.895   1_554  S
O207        C213   1.265       .  A
O208        C213   1.279       .  A
C209       C2074   1.540       .  S
O210        C212   1.259       .  A
O211       Ni222   1.969       .  S
C212        O218   1.295       .  A
C212       C2084   1.497       .  S
C213       C2044   1.493       .  S
H214        O215   0.966       .  S
O215       Ni223   1.931   1_655  S
O215       Ni217   1.898       .  S
O215       Ni222   1.901       .  S
O216       Ni217   1.989   1_455  S
Ni217       O221   1.924   1_556  S
Ni217       O219   1.899       .  S
O218       Ni223   1.991   1_654  S
C220        O221   1.276       .  A
C220       C2067   1.526       .  S
O225       Ni231   1.914       .  S
O225        C246   1.264       .  A
O226       Ni249   1.933       .  S
O226        C235   1.280       .  A
O227       Ni231   1.900       .  S
O227       Ni249   1.906   1_565  S
O227       Ni243   1.906   1_565  S
O227        H250   0.966       .  S
C228        O245   1.266       .  A
C228        O237   1.280       .  A
C228       C1994   1.493       .  S
O229       Ni248   1.921       .  S
O229        C235   1.269       .  A
O230       Ni248   1.860       .  S
O230        C232   1.243       .  A
Ni231       O234   1.926       .  S
Ni231       O236   1.869       .  S
C232        O242   1.287       .  A
C232       C2034   1.485       .  S
O233       Ni249   1.897   1_565  S
O233        C239   1.264       .  A
O234        C239   1.277       .  A
C235       C2014   1.520       .  S
O236        C238   1.262       .  A
O237       Ni248   1.974       .  S
C238        O244   1.285       .  A
C238       C2004   1.481       .  S
C239       C2024   1.496       .  S
H240        O241   0.966       .  S
O241       Ni249   1.936       .  S
O241       Ni243   1.935       .  S
O241       Ni248   1.905       .  S
O242       Ni243   1.994       .  S
Ni243       O247   1.937   1_545  S
Ni243       O245   1.893       .  S
O244       Ni249   1.956   1_565  S
C246        O247   1.278       .  A
C246       C2447   1.518       .  S
O251       Ni257   1.949       .  S
O251        C272   1.277       .  A
O252       Ni275   1.913       .  S
O252        C261   1.272       .  A
O253       Ni257   1.919       .  S
O253       Ni275   1.903       .  S
O253       Ni269   1.919       .  S
O253        H276   0.966       .  S
C254        O271   1.261       .  A
C254        O263   1.287       .  A
C254       C1977   1.518       .  S
O255       Ni274   1.940       .  S
O255        C261   1.275       .  A
O256       Ni274   1.872       .  S
O256        C258   1.261       .  A
Ni257       O260   1.953       .  S
Ni257       O262   1.910       .  S
C258        O268   1.304       .  A
C258       C1944   1.519       .  S
O259       Ni275   1.918       .  S
O259        C265   1.278       .  A
O260        C265   1.282       .  A
C261       C1984   1.495       .  S
O262        C264   1.269       .  A
O263       Ni274   1.969       .  S
C264        O270   1.283       .  A
C264       C1964   1.499       .  S
C265       C2387   1.508       .  S
H266        O267   0.966       .  S
O267       Ni275   1.930       .  S
O267       Ni269   1.900       .  S
O267       Ni274   1.897       .  S
O268       Ni269   2.023       .  S
Ni269       O273   1.913       .  S
Ni269       O271   1.886       .  S
O270       Ni275   1.972       .  S
C272        O273   1.274       .  A
C272       C1954   1.509       .  S
O277       Ni283   1.920   1_455  S
O277        C298   1.266       .  A
O278       Ni301   1.902       .  S
O278        C287   1.269       .  A
O279       Ni283   1.913       .  S
O279       Ni301   1.918       .  S
O279       Ni295   1.922   1_655  S
O279        H302   0.966       .  S
C280        O297   1.261       .  A
C280        O289   1.283       .  A
C280       C1937   1.499       .  S
O281       Ni300   1.938   1_655  S
O281        C287   1.270       .  A
O282       Ni300   1.867   1_655  S
O282        C284   1.259       .  A
Ni283       O286   1.957       .  S
Ni283       O288   1.869   1_655  S
C284        O294   1.298       .  A
C284       C1904   1.508       .  S
O285       Ni301   1.906       .  S
O285        C291   1.270       .  A
O286        C291   1.276       .  A
C287       C1914   1.492       .  S
O288        C290   1.247       .  A
O289       Ni300   1.966       .  S
C290        O296   1.290       .  A
C290       C1894   1.501       .  S
C291       C2437   1.501       .  S
H292        O293   0.966       .  S
O293       Ni301   1.922   1_455  S
O293       Ni295   1.905       .  S
O293       Ni300   1.916       .  S
O294       Ni295   2.005   1_655  S
Ni295       O299   1.907       .  S
Ni295       O297   1.890       .  S
O296       Ni301   2.011   1_455  S
C298        O299   1.278       .  A
C298       C1924   1.494       .  S
O303       Ni309   1.901   1_565  S
O303        C324   1.262       .  A
O304       Ni327   1.922       .  S
O304        C313   1.274       .  A
O305       Ni309   1.906       .  S
O305       Ni327   1.895   1_554  S
O305       Ni321   1.902   1_545  S
O305        H328   0.966       .  S
C306        O323   1.258       .  A
C306        O315   1.276       .  A
C306       C1877   1.469       .  S
O307       Ni326   1.898   1_545  S
O307        C313   1.262       .  A
O308       Ni326   1.859   1_544  S
O308        C310   1.244       .  A
Ni309       O312   1.917   1_554  S
Ni309       O314   1.885   1_544  S
C310        O320   1.293       .  A
C310       C1844   1.516       .  S
O311       Ni327   1.898       .  S
O311        C317   1.267       .  A
O312        C317   1.273       .  A
C313       C1887   1.511       .  S
O314        C316   1.260       .  A
O315       Ni326   1.951   1_554  S
C316        O322   1.289       .  A
C316       C2337   1.501       .  S
C317       C1854   1.497       .  S
H318        O319   0.966       .  S
O319       Ni327   1.932   1_565  S
O319       Ni321   1.927   1_556  S
O319       Ni326   1.903       .  S
O320       Ni321   2.017   1_545  S
Ni321       O325   1.919       .  S
Ni321       O323   1.883       .  S
O322       Ni327   1.990   1_565  S
C324        O325   1.268       .  A
C324       C1864   1.498       .  S
C329       C1827   1.492       .  S
C329        C330   1.390       .  A
C329        C334   1.408       .  A
C330        C331   1.390       .  A
C330        H335   1.084       .  S
C331       C1814   1.480       .  S
C331        C332   1.417       .  A
C332        C333   1.421       .  A
C332        H336   1.082       .  S
C333       C1834   1.540   1_565  S
C333        C334   1.409       .  A
C334        H337   1.059       .  S
C338       C1804   1.509       .  S
C338        C339   1.404       .  A
C338        C343   1.417       .  A
C339        C340   1.400       .  A
C339        H344   1.081       .  S
C340       C1797   1.502       .  S
C340        C341   1.418       .  A
C341        C342   1.417       .  A
C341        H345   1.083       .  S
C342       C1784   1.520       .  S
C342        C343   1.409       .  A
C343        H346   1.080       .  S
C347       C1774   1.578       .  S
C347       C1794   1.620       .  S
C347       C2277   1.613       .  S
C347       C2634   1.611       .  S
C348       C1764   1.531   1_565  S
C348        C349   1.423       .  A
C348        C353   1.419       .  A
C349        C350   1.422       .  A
C349        H354   1.080       .  S
C350       C1744   1.523       .  S
C350        C351   1.405       .  A
C351        C352   1.397       .  A
C351        H355   1.082       .  S
C352       C1754   1.498       .  S
C352        C353   1.411       .  A
C353        H356   1.083       .  S
C357       C1734   1.485       .  S
C357        C358   1.406       .  A
C357        C362   1.400       .  A
C358        C359   1.410       .  A
C358        H363   1.083       .  S
C359       C1777   1.517       .  S
C359        C360   1.410       .  A
C360        C361   1.411       .  A
C360        H364   1.079       .  S
C361       C1724   1.488       .  S
C361        C362   1.400       .  A
C362        H365   1.084       .  S
C366       C1727   1.618       .  S
C366       C1747   1.618       .  S
C366       C2027   1.596       .  S
C366       C2157   1.590       .  S
C367       C1714   1.608       .  S
C367       C1737   1.603       .  S
C367       C1824   1.586       .  S
C367       C1927   1.630       .  S
C368       C1807   1.620       .  S
C368       C1817   1.600       .  S
C368       C1874   1.567       .  S
C368       C2137   1.621       .  S
C369       C1704   1.604       .  S
C369       C1757   1.618       .  S
C369       C1787   1.611       .  S
C369       C1957   1.623       .  S
C370       C1767   1.647       .  S
C370       C1837   1.621       .  S
C370       C2237   1.638       .  S
C370       C2607   1.612       .  S
O371       Ni377   1.931       .  S
O371        C392   1.271       .  A
O372       Ni395   1.918       .  S
O372        C381   1.276       .  A
O373       Ni377   1.905       .  S
O373       Ni395   1.922   1_545  S
O373       Ni389   1.929       .  S
O373        H396   0.966       .  S
C374        O391   1.274       .  A
C374        O383   1.276       .  A
C374       C1694   1.480       .  S
O375       Ni394   1.915       .  S
O375        C381   1.268       .  A
O376       Ni394   1.901   1_545  S
O376        C378   1.268       .  A
Ni377       O380   1.984   1_545  S
Ni377       O382   1.876   1_545  S
C378        O388   1.283       .  A
C378       C1674   1.503       .  S
O379       Ni395   1.885       .  S
O379        C385   1.264       .  A
O380        C385   1.286       .  A
C381       C1707   1.491       .  S
O382        C384   1.242       .  A
O383       Ni394   1.925   1_545  S
C384        O390   1.287       .  A
C384       C2427   1.507       .  S
C385       C1687   1.491       .  S
H386        O387   0.966       .  S
O387       Ni395   1.913       .  S
O387       Ni389   1.899   1_565  S
O387       Ni394   1.903       .  S
O388       Ni389   1.962       .  S
Ni389       O393   1.896       .  S
Ni389       O391   1.924       .  S
O390       Ni395   1.999       .  S
C392        O393   1.270       .  A
C392       C1664   1.478       .  S
O397       Ni403   1.924   1_554  S
O397        C418   1.269       .  A
O398       Ni421   1.915       .  S
O398        C407   1.277       .  A
O399       Ni403   1.900       .  S
O399       Ni421   1.902       .  S
O399       Ni415   1.907   1_556  S
O399        H422   0.966       .  S
C400        O417   1.263       .  A
C400        O409   1.276       .  A
C400       C1637   1.476       .  S
O401       Ni420   1.909   1_556  S
O401        C407   1.267       .  A
O402       Ni420   1.857   1_556  S
O402        C404   1.253       .  A
Ni403       O406   1.915       .  S
Ni403       O408   1.900   1_556  S
C404        O414   1.297       .  A
C404       C1647   1.492       .  S
O405       Ni421   1.904       .  S
O405        C411   1.267       .  A
O406        C411   1.271       .  A
C407       C1627   1.500       .  S
O408        C410   1.271       .  A
O409       Ni420   1.948       .  S
C410        O416   1.280       .  A
C410       C1617   1.485       .  S
C411       C2327   1.500       .  S
H412        O413   0.966       .  S
O413       Ni421   1.924   1_554  S
O413       Ni415   1.908       .  S
O413       Ni420   1.897       .  S
O414       Ni415   1.995   1_556  S
Ni415       O419   1.939       .  S
Ni415       O417   1.886       .  S
O416       Ni421   1.948   1_554  S
C418        O419   1.279       .  A
C418       C1654   1.530       .  S
C423       C1594   1.494       .  S
C423        C424   1.411       .  A
C423        C428   1.399       .  A
C424        C425   1.428       .  A
C424        H429   1.078       .  S
C425       C1604   1.542   1_556  S
C425        C426   1.417       .  A
C426        C427   1.404       .  A
C426        H430   1.066       .  S
C427       C1584   1.494       .  S
C427        C428   1.392       .  A
C428        H431   1.084       .  S
C432       C1554   1.526       .  S
C432        C433   1.418       .  A
C432        C437   1.412       .  A
C433        C434   1.410       .  A
C433        H438   1.083       .  S
C434       C1574   1.507       .  S
C434        C435   1.415       .  A
C435        C436   1.405       .  A
C435        H439   1.082       .  S
C436       C1564   1.509       .  S
C436        C437   1.409       .  A
C437        H440   1.074       .  S
C441       C1557   1.609       .  S
C441       C1597   1.623       .  S
C441       C2117   1.607       .  S
C441       C2167   1.612       .  S
C442       C1534   1.490       .  S
C442        C443   1.410       .  A
C442        C447   1.396       .  A
C443        C444   1.408       .  A
C443        H448   1.083       .  S
C444       C1544   1.533       .  S
C444        C445   1.418       .  A
C445        C446   1.430       .  A
C445        H449   1.075       .  S
C446       C1527   1.535       .  S
C446        C447   1.406       .  A
C447        H450   1.071       .  S
C451       C1514   1.597       .  S
C451       C1524   1.606       .  S
C451       C1587   1.616       .  S
C451       C1644   1.609       .  S
C452       C1547   1.630       .  S
C452       C1577   1.611       .  S
C452       C2217   1.609       .  S
C452       C2647   1.626       .  S
C453       C1504   1.608       .  S
C453       C1537   1.618       .  S
C453       C1884   1.613       .  S
C453       C2037   1.621       .  S
C454       C1487   1.621       .  S
C454       C1494   1.646       .  S
C454       C1567   1.607       .  S
C454       C2077   1.618       .  S
C455       C1507   1.539       .  S
C455        C456   1.412       .  A
C455        C460   1.425       .  A
C456        C457   1.403       .  A
C456        H461   1.074       .  S
C457       C1497   1.505       .  S
C457        C458   1.411       .  A
C458        C459   1.416       .  A
C458        H462   1.083       .  S
C459       C1474   1.526   1_556  S
C459        C460   1.417       .  A
C460        H463   1.070       .  S
C464       C1477   1.609       .  S
C464       C1607   1.627       .  S
C464       C2304   1.654       .  S
C464       C2597   1.574       .  S
C465       C1447   1.516       .  S
C465        C466   1.410       .  A
C465        C470   1.398       .  A
C466        C467   1.429       .  A
C466        H471   1.077       .  S
C467       C1464   1.558       .  S
C467        C468   1.432       .  A
C468        C469   1.426       .  A
C468        H472   1.067       .  S
C469       C1457   1.530       .  S
C469        C470   1.402       .  A
C470        H473   1.077       .  S
C474       C1434   1.535       .  S
C474        C475   1.423       .  A
C474        C479   1.404       .  A
C475        C476   1.421       .  A
C475        H480   1.072       .  S
C476       C1427   1.506       .  S
C476        C477   1.402       .  A
C477        C478   1.403       .  A
C477        H481   1.083       .  S
C478       C1414   1.481       .  S
C478        C479   1.401       .  A
C479        H482   1.079       .  S
C483       C1424   1.619       .  S
C483       C1467   1.615       .  S
C483       C1974   1.629       .  S
C483       C2657   1.608       .  S
C484       C1397   1.498   1_554  S
C484        C485   1.393       .  A
C484        C489   1.417       .  A
C485        C486   1.396       .  A
C485        H490   1.084       .  S
C486       C1407   1.497       .  S
C486        C487   1.408       .  A
C487        C488   1.414       .  A
C487        H491   1.067       .  S
C488       C1384   1.545       .  S
C488        C489   1.426       .  A
C489        H492   1.074       .  S
C493       C1404   1.619       .  S
C493       C1444   1.612       .  S
C493       C1634   1.599       .  S
C493       C2587   1.610       .  S
C494       C1387   1.606       .  S
C494       C1417   1.606       .  S
C494       C2127   1.589       .  S
C494       C2264   1.625       .  S
C495       C1374   1.516       .  S
C495        C496   1.413   1_556  A
C495        C500   1.400   1_556  A
C496        C497   1.425       .  A
C496        H501   1.069   1_554  S
C497       C1354   1.555       .  S
C497        C498   1.425       .  A
C498        C499   1.413       .  A
C498        H502   1.072       .  S
C499       C1364   1.512       .  S
C499        C500   1.406       .  A
C500        H503   1.080       .  S
C504       C1347   1.633       .  S
C504       C1377   1.618       .  S
C504       C1394   1.609       .  S
C504       C2177   1.599       .  S
C505       C1357   1.604       .  S
C505       C1437   1.638       .  S
C505       C1684   1.643       .  S
C505       C1867   1.606       .  S
C506       C1367   1.639       .  S
C506       C1454   1.613       .  S
C506       C1917   1.624       .  S
C506       C2064   1.609       .  S
O507       Ni513   1.927       .  S
O507        C528   1.269       .  A
O508       Ni531   1.889       .  S
O508        C517   1.268       .  A
O509       Ni513   1.904       .  S
O509       Ni531   1.890       .  S
O509       Ni525   1.922       .  S
O509        H532   0.966       .  S
C510        O527   1.269       .  A
C510        O519   1.286       .  A
C510       C2357   1.493       .  S
O511       Ni530   1.941       .  S
O511        C517   1.275       .  A
O512       Ni530   1.868       .  S
O512        C514   1.260       .  A
Ni513       O516   1.933       .  S
Ni513       O518   1.897       .  S
C514        O524   1.292       .  A
C514       C1344   1.519       .  S
O515       Ni531   1.907       .  S
O515        C521   1.275       .  A
O516        C521   1.279       .  A
C517       C1517   1.495       .  S
O518        C520   1.269       .  A
O519       Ni530   1.957       .  S
C520        O526   1.274       .  A
C520       C1314   1.471       .  S
C521       C1324   1.498       .  S
H522        O523   0.966       .  S
O523       Ni531   1.922       .  S
O523       Ni525   1.889       .  S
O523       Ni530   1.887       .  S
O524       Ni525   1.987       .  S
Ni525       O529   1.893       .  S
Ni525       O527   1.905       .  S
O526       Ni531   1.933       .  S
C528        O529   1.272       .  A
C528       C1334   1.513       .  S
O533       Ni539   1.919   1_655  S
O533        C554   1.273       .  A
O534       Ni557   1.915       .  S
O534        C543   1.274       .  A
O535       Ni539   1.878       .  S
O535       Ni557   1.887   1_545  S
O535       Ni551   1.926   1_455  S
O535        H558   0.966       .  S
C536        O553   1.279       .  A
C536        O545   1.276       .  A
C536       C1304   1.494       .  S
O537       Ni556   1.909   1_455  S
O537        C543   1.268       .  A
O538       Ni556   1.899   1_445  S
O538        C540   1.270       .  A
Ni539       O542   1.934   1_545  S
Ni539       O544   1.901   1_445  S
C540        O550   1.284       .  A
C540       C1274   1.499       .  S
O541       Ni557   1.946       .  S
O541        C547   1.282       .  A
O542        C547   1.279       .  A
C543       C1717   1.501       .  S
O544        C546   1.268       .  A
O545       Ni556   1.936   1_545  S
C546        O552   1.286       .  A
C546       C2377   1.495       .  S
C547       C1297   1.504       .  S
H548        O549   0.966       .  S
O549       Ni557   1.934   1_655  S
O549       Ni551   1.892   1_565  S
O549       Ni556   1.891       .  S
O550       Ni551   1.965   1_455  S
Ni551       O555   1.924       .  S
Ni551       O553   1.935       .  S
O552       Ni557   1.971   1_655  S
C554        O555   1.281       .  A
C554       C1287   1.489       .  S
C559       C1267   1.524       .  S
C559        C560   1.412       .  A
C559        C564   1.422       .  A
C560        C561   1.407       .  A
C560        H565   1.083       .  S
C561       C1244   1.491       .  S
C561        C562   1.400       .  A
C562        C563   1.406       .  A
C562        H566   1.084       .  S
C563       C1254   1.525       .  S
C563        C564   1.422       .  A
C564        H567   1.078       .  S
C568       C1224   1.496       .  S
C568        C569   1.401       .  A
C568        C573   1.410       .  A
C569        C570   1.398       .  A
C569        H574   1.082       .  S
C570       C1234   1.500       .  S
C570        C571   1.406       .  A
C571        C572   1.413       .  A
C571        H575   1.084       .  S
C572       C1214   1.486       .  S
C572        C573   1.399       .  A
C573        H576   1.083       .  S
C577       C1187   1.511       .  S
C577        C578   1.399       .  A
C577        C582   1.416       .  A
C578        C579   1.397       .  A
C578        H583   1.080       .  S
C579       C1194   1.507       .  S
C579        C580   1.410       .  A
C580        C581   1.429       .  A
C580        H584   1.065       .  S
C581       C1207   1.564   1_545  S
C581        C582   1.418       .  A
C582        H585   1.055       .  S
C586       C1157   1.504       .  S
C586        C587   1.415       .  A
C586        C591   1.403       .  A
C587        C588   1.415       .  A
C587        H592   1.083       .  S
C588       C1177   1.512       .  S
C588        C589   1.411       .  A
C589        C590   1.407       .  A
C589        H593   1.084       .  S
C590       C1164   1.487       .  S
C590        C591   1.401       .  A
C591        H594   1.084       .  S
C595       C1154   1.624       .  S
C595       C1184   1.617       .  S
C595       C1677   1.636       .  S
C595       C2577   1.611       .  S
C596       C1197   1.578       .  S
C596       C1217   1.613       .  S
C596       C2017   1.610       .  S
C596       C2204   1.613       .  S
C597       C1167   1.628       .  S
C597       C1237   1.588       .  S
C597       C1327   1.610       .  S
C597       C2667   1.649       .  S
C598       C1204   1.635       .  S
C598       C1264   1.631       .  S
C598       C1967   1.617       .  S
C598       C2187   1.631       .  S
C599       C1147   1.632       .  S
C599       C1174   1.625       .  S
C599       C1257   1.619       .  S
C599       C1284   1.600       .  S
C600       C1227   1.593       .  S
C600       C1247   1.624       .  S
C600       C1624   1.608       .  S
C600       C1857   1.599       .  S
C601       C1114   1.521   1_455  S
C601        C602   1.417       .  A
C601        C606   1.410       .  A
C602        C603   1.404       .  A
C602        H607   1.082       .  S
C603       C1134   1.488       .  S
C603        C604   1.399       .  A
C604        C605   1.403       .  A
C604        H608   1.082       .  S
C605       C1124   1.507       .  S
C605        C606   1.416       .  A
C606        H609   1.080       .  S
C610       C1104   1.619       .  S
C610       C1117   1.601       .  S
C610       C1337   1.610       .  S
C610       C1987   1.625       .  S
C611       C1094   1.541       .  S
C611        C612   1.419       .  A
C611        C616   1.427       .  A
C612        C613   1.407       .  A
C612        H617   1.073       .  S
C613       C1087   1.507       .  S
C613        C614   1.402       .  A
C614        C615   1.408       .  A
C614        H618   1.084       .  S
C615       C1074   1.513       .  S
C615        C616   1.417       .  A
C616        H619   1.081       .  S
C620       C1107   1.494   1_455  S
C620        C621   1.412       .  A
C620        C625   1.399       .  A
C621        C622   1.422       .  A
C621        H626   1.079       .  S
C622       C1067   1.532       .  S
C622        C623   1.421       .  A
C623        C624   1.412       .  A
C623        H627   1.081       .  S
C624       C1054   1.498       .  S
C624        C625   1.398       .  A
C625        H628   1.084   1_455  S
C629       C1024   1.520       .  S
C629        C630   1.425       .  A
C629        C634   1.399       .  A
C630        C631   1.429       .  A
C630        H635   1.072       .  S
C631       C1047   1.558       .  S
C631        C632   1.421       .  A
C632        C633   1.412       .  A
C632        H636   1.072       .  S
C633       C1034   1.505       .  S
C633        C634   1.403       .  A
C634        H637   1.079       .  S
C638       C1014   1.640       .  S
C638       C1027   1.633       .  S
C638       C1064   1.617       .  S
C638       C2247   1.595       .  S
C639       C1057   1.609       .  S
C639       C1084   1.613       .  S
C639       C1934   1.615       .  S
C639       C2294   1.619       .  S
C640       C1037   1.601       .  S
C640       C1137   1.614       .  S
C640       C2057   1.600       .  S
C640       C2107   1.613       .  S
C641       C1044   1.636       .  S
C641       C1077   1.604       .  S
C641       C2147   1.633       .  S
C641       C2627   1.583       .  S
C642       C1097   1.645       .  S
C642       C1127   1.608       .  S
C642       C1294   1.629       .  S
C642       C2007   1.614       .  S
C643        C994   1.512       .  S
C643        C644   1.413       .  A
C643        C648   1.420       .  A
C644        C645   1.399       .  A
C644        H649   1.084       .  S
C645       C1004   1.491       .  S
C645        C646   1.408       .  A
C646        C647   1.408       .  A
C646        H650   1.084       .  S
C647        C984   1.508       .  S
C647        C648   1.415       .  A
C648        H651   1.083       .  S
C652        C974   1.608       .  S
C652        C987   1.617       .  S
C652       C1907   1.627       .  S
C652       C1947   1.636       .  S
C653        C964   1.592       .  S
C653       C1007   1.623       .  S
C653       C2564   1.622       .  S
C653       C2617   1.590       .  S
C654        C954   1.506       .  S
C654        C655   1.412       .  A
C654        C659   1.405       .  A
C655        C656   1.422       .  A
C655        H660   1.070       .  S
C656        C967   1.540       .  S
C656        C657   1.402       .  A
C657        C658   1.394       .  A
C657        H661   1.064       .  S
C658        C947   1.487       .  S
C658        C659   1.403       .  A
C659        H662   1.083       .  S
C663        C927   1.615       .  S
C663        C934   1.601       .  S
C663        C944   1.607       .  S
C663       C1317   1.607       .  S
C664        C914   1.505   1_655  S
C664        C665   1.422       .  A
C664        C669   1.394       .  A
C665        C666   1.429       .  A
C665        H670   1.082       .  S
C666        C977   1.519       .  S
C666        C667   1.403       .  A
C667        C668   1.401       .  A
C667        H671   1.083       .  S
C668        C937   1.485       .  S
C668        C669   1.399       .  A
C669        H672   1.084       .  S
C673        C904   1.522   1_655  S
C673        C674   1.405       .  A
C673        C678   1.424       .  A
C674        C675   1.409       .  A
C674        H679   1.084       .  S
C675        C897   1.515       .  S
C675        C676   1.410       .  A
C676        C677   1.424       .  A
C676        H680   1.071       .  S
C677        C884   1.558       .  S
C677        C678   1.431       .  A
C678        H681   1.072       .  S
C682        C907   1.611       .  S
C682        C917   1.614       .  S
C682       C2224   1.620       .  S
C682       C2287   1.602       .  S
C683        C894   1.619       .  S
C683        C997   1.617       .  S
C683       C1657   1.628       .  S
C683       C2087   1.620       .  S
C684        C887   1.626       .  S
C684        C957   1.621       .  S
C684       C1307   1.616       .  S
C684       C1697   1.602       .  S
O685       Ni691   1.917   1_455  S
O685        C706   1.267       .  A
O686       Ni709   1.907       .  S
O686        C695   1.276       .  A
O687       Ni691   1.882       .  S
O687       Ni709   1.872       .  S
O687       Ni703   1.892   1_655  S
O687        H710   0.966       .  S
C688        O705   1.258       .  A
C688        O697   1.287       .  A
C688        C874   1.492       .  S
O689       Ni708   1.951   1_655  S
O689        C695   1.278       .  A
O690       Ni708   1.858   1_655  S
O690        C692   1.257       .  A
Ni691       O694   1.912       .  S
Ni691       O696   1.907   1_655  S
C692        O702   1.295       .  A
C692       C2317   1.489       .  S
O693       Ni709   1.919       .  S
O693        C699   1.278       .  A
O694        C699   1.275       .  A
C695       C1144   1.512       .  S
O696        C698   1.266       .  A
O697       Ni708   1.979       .  S
C698        O704   1.283       .  A
C698       C1017   1.517       .  S
C699        C924   1.480       .  S
H700        O701   0.966       .  S
O701       Ni709   1.928   1_455  S
O701       Ni703   1.900       .  S
O701       Ni708   1.890       .  S
O702       Ni703   1.991   1_655  S
Ni703       O707   1.897       .  S
Ni703       O705   1.879       .  S
O704       Ni709   1.965   1_455  S
C706        O707   1.276       .  A
C706       C1484   1.476       .  S
C711        C867   1.521   1_455  S
C711        C712   1.419       .  A
C711        C716   1.410       .  A
C712        C713   1.418       .  A
C712        H717   1.083       .  S
C713        C844   1.531   1_554  S
C713        C714   1.409       .  A
C714        C715   1.421       .  A
C714        H718   1.072       .  S
C715        C857   1.539   1_545  S
C715        C716   1.414       .  A
C716        H719   1.063       .  S
C720        C824   1.506       .  S
C720        C721   1.412       .  A
C720        C725   1.404       .  A
C721        C722   1.405       .  A
C721        H726   1.084       .  S
C722        C834   1.503       .  S
C722        C723   1.413       .  A
C723        C724   1.414       .  A
C723        H727   1.082       .  S
C724        C817   1.524   1_554  S
C724        C725   1.409       .  A
C725        H728   1.073       .  S
C729        C804   1.478   1_455  S
C729        C730   1.404       .  A
C729        C734   1.394       .  A
C730        C731   1.404       .  A
C730        H735   1.084       .  S
C731        C787   1.498       .  S
C731        C732   1.410       .  A
C732        C733   1.416       .  A
C732        H736   1.084       .  S
C733        C794   1.493       .  S
C733        C734   1.402       .  A
C734        H737   1.082       .  S
C738        C754   1.486       .  S
C738        C739   1.404       .  A
C738        C743   1.401       .  A
C739        C740   1.408       .  A
C739        H744   1.084       .  S
C740        C774   1.523       .  S
C740        C741   1.419       .  A
C741        C742   1.427       .  A
C741        H745   1.081       .  S
C742        C767   1.518   1_545  S
C742        C743   1.405       .  A
C743        H746   1.081       .  S
C747        C757   1.618       .  S
C747        C797   1.593       .  S
C747       C1277   1.627       .  S
C747       C2194   1.622       .  S
C748        C784   1.616       .  S
C748        C827   1.606       .  S
C748       C2047   1.608       .  S
C748       C2257   1.613       .  S
C749        C764   1.622       .  S
C749        C854   1.615       .  S
C749       C1897   1.616       .  S
C749       C2094   1.580       .  S
C750        C814   1.643       .  S
C750        C847   1.648       .  S
C750        C877   1.601       .  S
C750       C1997   1.625       .  S
C751        C807   1.585       .  S
C751        C864   1.620       .  S
C751       C1614   1.579       .  S
C751       C1667   1.615       .  S
C752        C777   1.618       .  S
C752        C837   1.623       .  S
C752       C1847   1.638       .  S
C752       C2557   1.606       .  S
C753        C754   1.400       .  A
C753        C758   1.427       .  A
C753       Br760   1.911       .  S
C754        C755   1.387       .  A
C755        C756   1.397       .  A
C755       Br762   1.943       .  S
C756        C757   1.454       .  A
C756       Br761   1.933       .  S
C757        C758   1.435       .  A
C758       Br759   1.934       .  S
C763        C764   1.433       .  A
C763        C768   1.418       .  A
C763       Br770   1.936       .  S
C764        C765   1.448       .  A
C765        C766   1.415       .  A
C765       Br772   1.933       .  S
C766        C767   1.404       .  A
C766       Br771   1.940   1_565  S
C767        C768   1.416       .  A
C768       Br769   1.934       .  S
C773        C774   1.408       .  A
C773        C778   1.407       .  A
C773       Br780   1.937       .  S
C774        C775   1.411       .  A
C775        C776   1.430       .  A
C775       Br782   1.907   1_545  S
C776        C777   1.444       .  A
C776       Br781   1.917       .  S
C777        C778   1.443       .  A
C778       Br779   1.916       .  S
C783        C784   1.458       .  A
C783        C788   1.402       .  A
C783       Br790   1.935       .  S
C784        C785   1.455       .  A
C785        C786   1.422       .  A
C785       Br792   1.938       .  S
C786        C787   1.403       .  A
C786       Br791   1.919       .  S
C787        C788   1.391       .  A
C788       Br789   1.932       .  S
C793        C794   1.385       .  A
C793        C798   1.405       .  A
C793       Br800   1.892       .  S
C794        C795   1.407       .  A
C795        C796   1.417       .  A
C795       Br802   1.930       .  S
C796        C797   1.446       .  A
C796       Br801   1.913       .  S
C797        C798   1.439       .  A
C798       Br799   1.922       .  S
C803        C804   1.395       .  A
C803        C808   1.399       .  A
C803       Br810   1.929   1_655  S
C804        C805   1.402       .  A
C805        C806   1.413       .  A
C805       Br812   1.939       .  S
C806        C807   1.438       .  A
C806       Br811   1.921       .  S
C807        C808   1.439       .  A
C808       Br809   1.932       .  S
C813        C814   1.424       .  A
C813        C818   1.408       .  A
C813       Br820   1.933       .  S
C814        C815   1.453       .  A
C815        C816   1.435       .  A
C815       Br822   1.911       .  S
C816        C817   1.416       .  A
C816       Br821   1.956       .  S
C817        C818   1.413       .  A
C818       Br819   1.936   1_556  S
C823        C824   1.403       .  A
C823        C828   1.405       .  A
C823       Br830   1.943       .  S
C824        C825   1.412       .  A
C825        C826   1.415       .  A
C825       Br832   1.928       .  S
C826        C827   1.448       .  A
C826       Br831   1.943       .  S
C827        C828   1.455       .  A
C828       Br829   1.945       .  S
C833        C834   1.407       .  A
C833        C838   1.426       .  A
C833       Br840   1.928       .  S
C834        C835   1.395       .  A
C835        C836   1.409       .  A
C835       Br842   1.940       .  S
C836        C837   1.457       .  A
C836       Br841   1.945       .  S
C837        C838   1.436       .  A
C838       Br839   1.918       .  S
C843        C844   1.412       .  A
C843        C848   1.439       .  A
C843       Br850   1.936       .  S
C844        C845   1.401       .  A
C845        C846   1.416       .  A
C845       Br852   1.933   1_556  S
C846        C847   1.452       .  A
C846       Br851   1.934       .  S
C847        C848   1.452       .  A
C848       Br849   1.911       .  S
C853        C854   1.429       .  A
C853        C858   1.424       .  A
C853       Br860   1.928       .  S
C854        C855   1.417       .  A
C855        C856   1.404       .  A
C855       Br862   1.933       .  S
C856        C857   1.421       .  A
C856       Br861   1.935   1_565  S
C857        C858   1.435       .  A
C858       Br859   1.946   1_455  S
C863        C864   1.421       .  A
C863        C868   1.412       .  A
C863       Br870   1.927       .  S
C864        C865   1.454       .  A
C865        C866   1.420       .  A
C865       Br872   1.924       .  S
C866        C867   1.409       .  A
C866       Br871   1.911       .  S
C867        C868   1.417       .  A
C868       Br869   1.917       .  S
C873        C874   1.412       .  A
C873        C878   1.411       .  A
C873       Br880   1.917       .  S
C874        C875   1.389       .  A
C875        C876   1.415       .  A
C875       Br882   1.937       .  S
C876        C877   1.455       .  A
C876       Br881   1.910       .  S
C877        C878   1.439       .  A
C878       Br879   1.939       .  S
C883        C884   1.435       .  A
C883        C888   1.432       .  A
C883       Br890   1.945       .  S
C884        C885   1.431       .  A
C885        C886   1.413       .  A
C885       Br892   1.930       .  S
C886        C887   1.405       .  A
C886       Br891   1.903       .  S
C887        C888   1.429       .  A
C888       Br889   1.935       .  S
C893        C894   1.454       .  A
C893        C898   1.401       .  A
C893       Br900   1.941       .  S
C894        C895   1.450       .  A
C895        C896   1.428       .  A
C895       Br902   1.930       .  S
C896        C897   1.412       .  A
C896       Br901   1.927       .  S
C897        C898   1.401       .  A
C898       Br899   1.930       .  S
C903        C904   1.401       .  A
C903        C908   1.414       .  A
C903       Br910   1.879       .  S
C904        C905   1.401       .  A
C905        C906   1.422       .  A
C905       Br912   1.926   1_455  S
C906        C907   1.462       .  A
C906       Br911   1.945       .  S
C907        C908   1.438       .  A
C908       Br909   1.936       .  S
C913        C914   1.403       .  A
C913        C918   1.418       .  A
C913       Br920   1.935   1_455  S
C914        C915   1.399       .  A
C915        C916   1.409       .  A
C915       Br922   1.917       .  S
C916        C917   1.445       .  A
C916       Br921   1.921       .  S
C917        C918   1.460       .  A
C918       Br919   1.942       .  S
C923        C924   1.397       .  A
C923        C928   1.413       .  A
C923       Br930   1.952       .  S
C924        C925   1.389       .  A
C925        C926   1.414       .  A
C925       Br932   1.940       .  S
C926        C927   1.458       .  A
C926       Br931   1.934       .  S
C927        C928   1.461       .  A
C928       Br929   1.935       .  S
C933        C934   1.455       .  A
C933        C938   1.400       .  A
C933       Br940   1.927       .  S
C934        C935   1.446       .  A
C935        C936   1.419       .  A
C935       Br942   1.929       .  S
C936        C937   1.403       .  A
C936       Br941   1.932       .  S
C937        C938   1.390       .  A
C938       Br939   1.943       .  S
C943        C944   1.443       .  A
C943        C948   1.410       .  A
C943       Br950   1.930       .  S
C944        C945   1.464       .  A
C945        C946   1.404       .  A
C945       Br952   1.932       .  S
C946        C947   1.389       .  A
C946       Br951   1.942       .  S
C947        C948   1.404       .  A
C948       Br949   1.926       .  S
C953        C954   1.399       .  A
C953        C958   1.406       .  A
C953       Br960   1.936       .  S
C954        C955   1.402       .  A
C955        C956   1.416       .  A
C955       Br962   1.926       .  S
C956        C957   1.456       .  A
C956       Br961   1.929       .  S
C957        C958   1.454       .  A
C958       Br959   1.933       .  S
C963        C964   1.426       .  A
C963        C968   1.393       .  A
C963       Br970   1.923       .  S
C964        C965   1.449       .  A
C965        C966   1.431       .  A
C965       Br972   1.963       .  S
C966        C967   1.441       .  A
C966       Br971   1.952       .  S
C967        C968   1.409       .  A
C968       Br969   1.939       .  S
C973        C974   1.437       .  A
C973        C978   1.421       .  A
C973       Br980   1.935       .  S
C974        C975   1.464       .  A
C975        C976   1.413       .  A
C975       Br982   1.938       .  S
C976        C977   1.400       .  A
C976       Br981   1.938       .  S
C977        C978   1.416       .  A
C978       Br979   1.911       .  S
C983        C984   1.391       .  A
C983        C988   1.417       .  A
C983       Br990   1.915       .  S
C984        C985   1.403       .  A
C985        C986   1.421       .  A
C985       Br992   1.927       .  S
C986        C987   1.465       .  A
C986       Br991   1.939       .  S
C987        C988   1.438       .  A
C988       Br989   1.918       .  S
C993        C994   1.402       .  A
C993        C998   1.406       .  A
C993      Br1000   1.938       .  S
C994        C995   1.411       .  A
C995        C996   1.430       .  A
C995      Br1002   1.936       .  S
C996        C997   1.455       .  A
C996      Br1001   1.935       .  S
C997        C998   1.452       .  A
C998       Br999   1.940       .  S
C1003      C1004   1.407       .  A
C1003      C1008   1.433       .  A
C1003     Br1010   1.920       .  S
C1004      C1005   1.389       .  A
C1005      C1006   1.385       .  A
C1005     Br1012   1.929       .  S
C1006      C1007   1.437       .  A
C1006     Br1011   1.926       .  S
C1007      C1008   1.447       .  A
C1008     Br1009   1.939       .  S
C1013      C1014   1.474       .  A
C1013      C1018   1.428       .  A
C1013     Br1020   1.955       .  S
C1014      C1015   1.424       .  A
C1015      C1016   1.406       .  A
C1015     Br1022   1.911       .  S
C1016      C1017   1.415       .  A
C1016     Br1021   1.934       .  S
C1017      C1018   1.406       .  A
C1018     Br1019   1.944       .  S
C1023      C1024   1.401       .  A
C1023      C1028   1.395       .  A
C1023     Br1030   1.925       .  S
C1024      C1025   1.399       .  A
C1025      C1026   1.427       .  A
C1025     Br1032   1.923       .  S
C1026      C1027   1.469       .  A
C1026     Br1031   1.951       .  S
C1027      C1028   1.443       .  A
C1028     Br1029   1.932       .  S
C1033      C1034   1.395       .  A
C1033      C1038   1.400       .  A
C1033     Br1040   1.934       .  S
C1034      C1035   1.401       .  A
C1035      C1036   1.419       .  A
C1035     Br1042   1.896       .  S
C1036      C1037   1.449       .  A
C1036     Br1041   1.939       .  S
C1037      C1038   1.444       .  A
C1038     Br1039   1.920       .  S
C1043      C1044   1.462       .  A
C1043      C1048   1.440       .  A
C1043     Br1050   1.959       .  S
C1044      C1045   1.414       .  A
C1045      C1046   1.407       .  A
C1045     Br1052   1.914       .  S
C1046      C1047   1.419       .  A
C1046     Br1051   1.926       .  S
C1047      C1048   1.431       .  A
C1048     Br1049   1.942       .  S
C1053      C1054   1.399       .  A
C1053      C1058   1.410       .  A
C1053     Br1060   1.933       .  S
C1054      C1055   1.392       .  A
C1055      C1056   1.401       .  A
C1055     Br1062   1.895       .  S
C1056      C1057   1.444       .  A
C1056     Br1061   1.930       .  S
C1057      C1058   1.465       .  A
C1058     Br1059   1.945       .  S
C1063      C1064   1.422       .  A
C1063      C1068   1.411       .  A
C1063     Br1070   1.898       .  S
C1064      C1065   1.448       .  A
C1065      C1066   1.436       .  A
C1065     Br1072   1.927       .  S
C1066      C1067   1.423       .  A
C1066     Br1071   1.937       .  S
C1067      C1068   1.413       .  A
C1068     Br1069   1.936       .  S
C1073      C1074   1.403       .  A
C1073      C1078   1.397       .  A
C1073     Br1080   1.920       .  S
C1074      C1075   1.410       .  A
C1075      C1076   1.429       .  A
C1075     Br1082   1.921       .  S
C1076      C1077   1.442       .  A
C1076     Br1081   1.920       .  S
C1077      C1078   1.427       .  A
C1078     Br1079   1.924       .  S
C1083      C1084   1.449       .  A
C1083      C1088   1.421       .  A
C1083     Br1090   1.932       .  S
C1084      C1085   1.459       .  A
C1085      C1086   1.410       .  A
C1085     Br1092   1.943       .  S
C1086      C1087   1.394       .  A
C1086     Br1091   1.925       .  S
C1087      C1088   1.405       .  A
C1088     Br1089   1.922       .  S
C1093      C1094   1.416       .  A
C1093      C1098   1.431       .  A
C1093     Br1100   1.935       .  S
C1094      C1095   1.402       .  A
C1095      C1096   1.423       .  A
C1095     Br1102   1.945       .  S
C1096      C1097   1.466       .  A
C1096     Br1101   1.936       .  S
C1097      C1098   1.447       .  A
C1098     Br1099   1.920       .  S
C1103      C1104   1.451       .  A
C1103      C1108   1.405       .  A
C1103     Br1110   1.945       .  S
C1104      C1105   1.431       .  A
C1105      C1106   1.425       .  A
C1105     Br1112   1.920       .  S
C1106      C1107   1.408       .  A
C1106     Br1111   1.927       .  S
C1107      C1108   1.394       .  A
C1108     Br1109   1.935   1_655  S
C1113      C1114   1.417       .  A
C1113      C1118   1.423       .  A
C1113     Br1120   1.906       .  S
C1114      C1115   1.406       .  A
C1115      C1116   1.409       .  A
C1115     Br1122   1.942   1_655  S
C1116      C1117   1.445       .  A
C1116     Br1121   1.920       .  S
C1117      C1118   1.436       .  A
C1118     Br1119   1.923       .  S
C1123      C1124   1.398       .  A
C1123      C1128   1.399       .  A
C1123     Br1130   1.943       .  S
C1124      C1125   1.418       .  A
C1125      C1126   1.431       .  A
C1125     Br1132   1.948       .  S
C1126      C1127   1.453       .  A
C1126     Br1131   1.943       .  S
C1127      C1128   1.450       .  A
C1128     Br1129   1.936       .  S
C1133      C1134   1.393       .  A
C1133      C1138   1.399       .  A
C1133     Br1140   1.938       .  S
C1134      C1135   1.406       .  A
C1135      C1136   1.425       .  A
C1135     Br1142   1.925       .  S
C1136      C1137   1.450       .  A
C1136     Br1141   1.932       .  S
C1137      C1138   1.443       .  A
C1138     Br1139   1.925       .  S
C1143      C1144   1.406       .  A
C1143      C1148   1.421       .  A
C1143     Br1150   1.928       .  S
C1144      C1145   1.393       .  A
C1145      C1146   1.425       .  A
C1145     Br1152   1.932       .  S
C1146      C1147   1.466       .  A
C1146     Br1151   1.935       .  S
C1147      C1148   1.453       .  A
C1148     Br1149   1.943       .  S
C1153      C1154   1.443       .  A
C1153      C1158   1.419       .  A
C1153     Br1160   1.886       .  S
C1154      C1155   1.455       .  A
C1155      C1156   1.409       .  A
C1155     Br1162   1.931       .  S
C1156      C1157   1.403       .  A
C1156     Br1161   1.934       .  S
C1157      C1158   1.399       .  A
C1158     Br1159   1.933       .  S
C1163      C1164   1.389       .  A
C1163      C1168   1.398       .  A
C1163     Br1170   1.933       .  S
C1164      C1165   1.404       .  A
C1165      C1166   1.427       .  A
C1165     Br1172   1.917       .  S
C1166      C1167   1.444       .  A
C1166     Br1171   1.936       .  S
C1167      C1168   1.458       .  A
C1168     Br1169   1.950       .  S
C1173      C1174   1.461       .  A
C1173      C1178   1.417       .  A
C1173     Br1180   1.938       .  S
C1174      C1175   1.445       .  A
C1175      C1176   1.417       .  A
C1175     Br1182   1.920       .  S
C1176      C1177   1.405       .  A
C1176     Br1181   1.927       .  S
C1177      C1178   1.401       .  A
C1178     Br1179   1.940       .  S
C1183      C1184   1.455       .  A
C1183      C1188   1.407       .  A
C1183     Br1190   1.934       .  S
C1184      C1185   1.457       .  A
C1185      C1186   1.426       .  A
C1185     Br1192   1.945       .  S
C1186      C1187   1.410       .  A
C1186     Br1191   1.936       .  S
C1187      C1188   1.397       .  A
C1188     Br1189   1.945       .  S
C1193      C1194   1.415       .  A
C1193      C1198   1.415       .  A
C1193     Br1200   1.925       .  S
C1194      C1195   1.405       .  A
C1195      C1196   1.411       .  A
C1195     Br1202   1.938       .  S
C1196      C1197   1.456       .  A
C1196     Br1201   1.948       .  S
C1197      C1198   1.430       .  A
C1198     Br1199   1.924       .  S
C1203      C1204   1.442       .  A
C1203      C1208   1.404       .  A
C1203     Br1210   1.913       .  S
C1204      C1205   1.463       .  A
C1205      C1206   1.450       .  A
C1205     Br1212   1.958       .  S
C1206      C1207   1.441       .  A
C1206     Br1211   1.939       .  S
C1207      C1208   1.400       .  A
C1208     Br1209   1.933       .  S
C1213      C1214   1.404       .  A
C1213      C1218   1.411       .  A
C1213     Br1220   1.919       .  S
C1214      C1215   1.391       .  A
C1215      C1216   1.401       .  A
C1215     Br1222   1.946       .  S
C1216      C1217   1.466       .  A
C1216     Br1221   1.958       .  S
C1217      C1218   1.427       .  A
C1218     Br1219   1.938       .  S
C1223      C1224   1.401       .  A
C1223      C1228   1.407       .  A
C1223     Br1230   1.943       .  S
C1224      C1225   1.408       .  A
C1225      C1226   1.411       .  A
C1225     Br1232   1.927       .  S
C1226      C1227   1.447       .  A
C1226     Br1231   1.952       .  S
C1227      C1228   1.455       .  A
C1228     Br1229   1.946       .  S
C1233      C1234   1.409       .  A
C1233      C1238   1.409       .  A
C1233     Br1240   1.909       .  S
C1234      C1235   1.411       .  A
C1235      C1236   1.411       .  A
C1235     Br1242   1.943       .  S
C1236      C1237   1.453       .  A
C1236     Br1241   1.949       .  S
C1237      C1238   1.411       .  A
C1238     Br1239   1.887       .  S
C1243      C1244   1.393       .  A
C1243      C1248   1.421       .  A
C1243     Br1250   1.927       .  S
C1244      C1245   1.389       .  A
C1245      C1246   1.403       .  A
C1245     Br1252   1.929       .  S
C1246      C1247   1.457       .  A
C1246     Br1251   1.938       .  S
C1247      C1248   1.460       .  A
C1248     Br1249   1.918       .  S
C1253      C1254   1.407       .  A
C1253      C1258   1.412       .  A
C1253     Br1260   1.932       .  S
C1254      C1255   1.409       .  A
C1255      C1256   1.431       .  A
C1255     Br1262   1.927       .  S
C1256      C1257   1.461       .  A
C1256     Br1261   1.953       .  S
C1257      C1258   1.449       .  A
C1258     Br1259   1.943       .  S
C1263      C1264   1.453       .  A
C1263      C1268   1.422       .  A
C1263     Br1270   1.943       .  S
C1264      C1265   1.459       .  A
C1265      C1266   1.418   1_565  A
C1265     Br1272   1.926       .  S
C1266      C1267   1.402       .  A
C1266     Br1271   1.939       .  S
C1267      C1268   1.411   1_545  A
C1268     Br1269   1.926       .  S
C1273      C1274   1.391       .  A
C1273      C1278   1.417       .  A
C1273     Br1280   1.930       .  S
C1274      C1275   1.401       .  A
C1275      C1276   1.417       .  A
C1275     Br1282   1.928       .  S
C1276      C1277   1.444       .  A
C1276     Br1281   1.938       .  S
C1277      C1278   1.442       .  A
C1278     Br1279   1.912       .  S
C1283      C1284   1.448       .  A
C1283      C1288   1.414       .  A
C1283     Br1290   1.941       .  S
C1284      C1285   1.456       .  A
C1285      C1286   1.405       .  A
C1285     Br1292   1.940       .  S
C1286      C1287   1.396       .  A
C1286     Br1291   1.941       .  S
C1287      C1288   1.402       .  A
C1288     Br1289   1.909       .  S
C1293      C1294   1.453       .  A
C1293      C1298   1.418       .  A
C1293     Br1300   1.937       .  S
C1294      C1295   1.463       .  A
C1295      C1296   1.429       .  A
C1295     Br1302   1.925       .  S
C1296      C1297   1.393       .  A
C1296     Br1301   1.933       .  S
C1297      C1298   1.391       .  A
C1298     Br1299   1.931       .  S
C1303      C1304   1.394       .  A
C1303      C1308   1.423       .  A
C1303     Br1310   1.934       .  S
C1304      C1305   1.393       .  A
C1305      C1306   1.404       .  A
C1305     Br1312   1.904       .  S
C1306      C1307   1.417       .  A
C1306     Br1311   1.931       .  S
C1307      C1308   1.461       .  A
C1308     Br1309   1.927       .  S
C1313      C1314   1.377       .  A
C1313      C1318   1.406       .  A
C1313     Br1320   1.928       .  S
C1314      C1315   1.389       .  A
C1315      C1316   1.418       .  A
C1315     Br1322   1.936       .  S
C1316      C1317   1.462       .  A
C1316     Br1321   1.934       .  S
C1317      C1318   1.458       .  A
C1318     Br1319   1.948       .  S
C1323      C1324   1.416       .  A
C1323      C1328   1.409       .  A
C1323     Br1330   1.922       .  S
C1324      C1325   1.411       .  A
C1325      C1326   1.420       .  A
C1325     Br1332   1.942       .  S
C1326      C1327   1.458       .  A
C1326     Br1331   1.934       .  S
C1327      C1328   1.399       .  A
C1328     Br1329   1.914       .  S
C1333      C1334   1.422       .  A
C1333      C1338   1.405       .  A
C1333     Br1340   1.938       .  S
C1334      C1335   1.412       .  A
C1335      C1336   1.422       .  A
C1335     Br1342   1.934       .  S
C1336      C1337   1.448       .  A
C1336     Br1341   1.936       .  S
C1337      C1338   1.422       .  A
C1338     Br1339   1.929       .  S
C1343      C1344   1.407       .  A
C1343      C1348   1.431       .  A
C1343     Br1350   1.938       .  S
C1344      C1345   1.421       .  A
C1345      C1346   1.405       .  A
C1345     Br1352   1.949       .  S
C1346      C1347   1.433       .  A
C1346     Br1351   1.927       .  S
C1347      C1348   1.464       .  A
C1348     Br1349   1.949       .  S
C1353      C1354   1.437       .  A
C1353      C1358   1.411       .  A
C1353     Br1360   1.928       .  S
C1354      C1355   1.441       .  A
C1355      C1356   1.430       .  A
C1355     Br1362   1.943       .  S
C1356      C1357   1.440       .  A
C1356     Br1361   1.941       .  S
C1357      C1358   1.418       .  A
C1358     Br1359   1.923       .  S
C1363      C1364   1.408       .  A
C1363      C1368   1.424       .  A
C1363     Br1370   1.932       .  S
C1364      C1365   1.398       .  A
C1365      C1366   1.418       .  A
C1365     Br1372   1.938       .  S
C1366      C1367   1.454       .  A
C1366     Br1371   1.936       .  S
C1367      C1368   1.444       .  A
C1368     Br1369   1.922       .  S
C1373      C1374   1.405       .  A
C1373      C1378   1.404       .  A
C1373     Br1380   1.928   1_556  S
C1374      C1375   1.414       .  A
C1375      C1376   1.429       .  A
C1375     Br1382   1.909       .  S
C1376      C1377   1.436       .  A
C1376     Br1381   1.905       .  S
C1377      C1378   1.440       .  A
C1378     Br1379   1.923       .  S
C1383      C1384   1.429       .  A
C1383      C1388   1.407       .  A
C1383     Br1390   1.933       .  S
C1384      C1385   1.429       .  A
C1385      C1386   1.424       .  A
C1385     Br1392   1.934       .  S
C1386      C1387   1.448       .  A
C1386     Br1391   1.946       .  S
C1387      C1388   1.416       .  A
C1388     Br1389   1.922       .  S
C1393      C1394   1.437       .  A
C1393      C1398   1.419       .  A
C1393     Br1400   1.917       .  S
C1394      C1395   1.448       .  A
C1395      C1396   1.407       .  A
C1395     Br1402   1.936       .  S
C1396      C1397   1.396       .  A
C1396     Br1401   1.937   1_556  S
C1397      C1398   1.414       .  A
C1398     Br1399   1.920       .  S
C1403      C1404   1.453       .  A
C1403      C1408   1.407       .  A
C1403     Br1410   1.930       .  S
C1404      C1405   1.456       .  A
C1405      C1406   1.418       .  A
C1405     Br1412   1.926       .  S
C1406      C1407   1.397       .  A
C1406     Br1411   1.930       .  S
C1407      C1408   1.400       .  A
C1408     Br1409   1.943       .  S
C1413      C1414   1.411       .  A
C1413      C1418   1.416       .  A
C1413     Br1420   1.926       .  S
C1414      C1415   1.393       .  A
C1415      C1416   1.395       .  A
C1415     Br1422   1.929       .  S
C1416      C1417   1.443       .  A
C1416     Br1421   1.926       .  S
C1417      C1418   1.436       .  A
C1418     Br1419   1.908       .  S
C1423      C1424   1.435       .  A
C1423      C1428   1.429       .  A
C1423     Br1430   1.921       .  S
C1424      C1425   1.448       .  A
C1425      C1426   1.400       .  A
C1425     Br1432   1.924       .  S
C1426      C1427   1.392       .  A
C1426     Br1431   1.939       .  S
C1427      C1428   1.412       .  A
C1428     Br1429   1.914       .  S
C1433      C1434   1.417       .  A
C1433      C1438   1.404       .  A
C1433     Br1440   1.944       .  S
C1434      C1435   1.439       .  A
C1435      C1436   1.440       .  A
C1435     Br1442   1.952       .  S
C1436      C1437   1.449       .  A
C1436     Br1441   1.941       .  S
C1437      C1438   1.423       .  A
C1438     Br1439   1.926       .  S
C1443      C1444   1.450       .  A
C1443      C1448   1.417       .  A
C1443     Br1450   1.930       .  S
C1444      C1445   1.450       .  A
C1445      C1446   1.413       .  A
C1445     Br1452   1.946       .  S
C1446      C1447   1.407       .  A
C1446     Br1451   1.927       .  S
C1447      C1448   1.407       .  A
C1448     Br1449   1.938       .  S
C1453      C1454   1.427       .  A
C1453      C1458   1.404       .  A
C1453     Br1460   1.937       .  S
C1454      C1455   1.440       .  A
C1455      C1456   1.427       .  A
C1455     Br1462   1.949       .  S
C1456      C1457   1.412       .  A
C1456     Br1461   1.879       .  S
C1457      C1458   1.411       .  A
C1458     Br1459   1.929       .  S
C1463      C1464   1.435       .  A
C1463      C1468   1.440       .  A
C1463     Br1470   1.936       .  S
C1464      C1465   1.405       .  A
C1465      C1466   1.396       .  A
C1465     Br1472   1.914       .  S
C1466      C1467   1.436       .  A
C1466     Br1471   1.919       .  S
C1467      C1468   1.446       .  A
C1468     Br1469   1.911       .  S
C1473      C1474   1.410       .  A
C1473      C1478   1.413       .  A
C1473     Br1480   1.931   1_554  S
C1474      C1475   1.409       .  A
C1475      C1476   1.422       .  A
C1475     Br1482   1.899       .  S
C1476      C1477   1.429       .  A
C1476     Br1481   1.901       .  S
C1477      C1478   1.438       .  A
C1478     Br1479   1.916       .  S
C1483      C1484   1.411       .  A
C1483      C1488   1.427       .  A
C1483     Br1490   1.927       .  S
C1484      C1485   1.382       .  A
C1485      C1486   1.391       .  A
C1485     Br1492   1.940       .  S
C1486      C1487   1.455       .  A
C1486     Br1491   1.932       .  S
C1487      C1488   1.437       .  A
C1488     Br1489   1.915       .  S
C1493      C1494   1.447       .  A
C1493      C1498   1.431       .  A
C1493     Br1500   1.907       .  S
C1494      C1495   1.453       .  A
C1495      C1496   1.407       .  A
C1495     Br1502   1.944       .  S
C1496      C1497   1.393       .  A
C1496     Br1501   1.932       .  S
C1497      C1498   1.413       .  A
C1498     Br1499   1.936       .  S
C1503      C1504   1.439       .  A
C1503      C1508   1.389       .  A
C1503     Br1510   1.914       .  S
C1504      C1505   1.452       .  A
C1505      C1506   1.438       .  A
C1505     Br1512   1.917       .  S
C1506      C1507   1.424       .  A
C1506     Br1511   1.928       .  S
C1507      C1508   1.394       .  A
C1508     Br1509   1.916       .  S
C1513      C1514   1.454       .  A
C1513      C1518   1.418       .  A
C1513     Br1520   1.932       .  S
C1514      C1515   1.444       .  A
C1515      C1516   1.418       .  A
C1515     Br1522   1.940       .  S
C1516      C1517   1.410       .  A
C1516     Br1521   1.935       .  S
C1517      C1518   1.397       .  A
C1518     Br1519   1.937       .  S
C1523      C1524   1.440       .  A
C1523      C1528   1.419       .  A
C1523     Br1530   1.933       .  S
C1524      C1525   1.443       .  A
C1525      C1526   1.407       .  A
C1525     Br1532   1.926       .  S
C1526      C1527   1.405       .  A
C1526     Br1531   1.919       .  S
C1527      C1528   1.433       .  A
C1528     Br1529   1.934       .  S
C1533      C1534   1.386       .  A
C1533      C1538   1.404       .  A
C1533     Br1540   1.944       .  S
C1534      C1535   1.396       .  A
C1535      C1536   1.415       .  A
C1535     Br1542   1.907       .  S
C1536      C1537   1.435       .  A
C1536     Br1541   1.915       .  S
C1537      C1538   1.465       .  A
C1538     Br1539   1.939       .  S
C1543      C1544   1.403       .  A
C1543      C1548   1.419       .  A
C1543     Br1550   1.939       .  S
C1544      C1545   1.416       .  A
C1545      C1546   1.429       .  A
C1545     Br1552   1.923       .  S
C1546      C1547   1.451       .  A
C1546     Br1551   1.941       .  S
C1547      C1548   1.456       .  A
C1548     Br1549   1.929       .  S
C1553      C1554   1.408       .  A
C1553      C1558   1.422       .  A
C1553     Br1560   1.922       .  S
C1554      C1555   1.415       .  A
C1555      C1556   1.415       .  A
C1555     Br1562   1.939       .  S
C1556      C1557   1.450       .  A
C1556     Br1561   1.940       .  S
C1557      C1558   1.449       .  A
C1558     Br1559   1.931       .  S
C1563      C1564   1.409       .  A
C1563      C1568   1.432       .  A
C1563     Br1570   1.924       .  S
C1564      C1565   1.399       .  A
C1565      C1566   1.405       .  A
C1565     Br1572   1.941       .  S
C1566      C1567   1.447       .  A
C1566     Br1571   1.934       .  S
C1567      C1568   1.445       .  A
C1568     Br1569   1.920       .  S
C1573      C1574   1.411       .  A
C1573      C1578   1.417       .  A
C1573     Br1580   1.912       .  S
C1574      C1575   1.394       .  A
C1575      C1576   1.408       .  A
C1575     Br1582   1.941       .  S
C1576      C1577   1.461       .  A
C1576     Br1581   1.935       .  S
C1577      C1578   1.448       .  A
C1578     Br1579   1.953       .  S
C1583      C1584   1.407       .  A
C1583      C1588   1.420       .  A
C1583     Br1590   1.931       .  S
C1584      C1585   1.396       .  A
C1585      C1586   1.400       .  A
C1585     Br1592   1.938       .  S
C1586      C1587   1.451       .  A
C1586     Br1591   1.919       .  S
C1587      C1588   1.448       .  A
C1588     Br1589   1.919       .  S
C1593      C1594   1.393       .  A
C1593      C1598   1.405       .  A
C1593     Br1600   1.936       .  S
C1594      C1595   1.401       .  A
C1595      C1596   1.422       .  A
C1595     Br1602   1.913       .  S
C1596      C1597   1.441       .  A
C1596     Br1601   1.913       .  S
C1597      C1598   1.453       .  A
C1598     Br1599   1.941       .  S
C1603      C1604   1.439       .  A
C1603      C1608   1.445       .  A
C1603     Br1610   1.951       .  S
C1604      C1605   1.403       .  A
C1605      C1606   1.389       .  A
C1605     Br1612   1.920       .  S
C1606      C1607   1.414       .  A
C1606     Br1611   1.928       .  S
C1607      C1608   1.465       .  A
C1608     Br1609   1.942       .  S
C1613      C1614   1.446       .  A
C1613      C1618   1.404       .  A
C1613     Br1620   1.941       .  S
C1614      C1615   1.452       .  A
C1615      C1616   1.418       .  A
C1615     Br1622   1.951       .  S
C1616      C1617   1.399       .  A
C1616     Br1621   1.929       .  S
C1617      C1618   1.397       .  A
C1618     Br1619   1.935       .  S
C1623      C1624   1.441       .  A
C1623      C1628   1.418       .  A
C1623     Br1630   1.920       .  S
C1624      C1625   1.452       .  A
C1625      C1626   1.410       .  A
C1625     Br1632   1.933       .  S
C1626      C1627   1.403       .  A
C1626     Br1631   1.939       .  S
C1627      C1628   1.412       .  A
C1628     Br1629   1.924       .  S
C1633      C1634   1.461       .  A
C1633      C1638   1.406       .  A
C1633     Br1640   1.937       .  S
C1634      C1635   1.446       .  A
C1635      C1636   1.407       .  A
C1635     Br1642   1.941       .  S
C1636      C1637   1.405       .  A
C1636     Br1641   1.924       .  S
C1637      C1638   1.387       .  A
C1638     Br1639   1.936       .  S
C1643      C1644   1.459       .  A
C1643      C1648   1.406       .  A
C1643     Br1650   1.943       .  S
C1644      C1645   1.433       .  A
C1645      C1646   1.417       .  A
C1645     Br1652   1.943       .  S
C1646      C1647   1.425       .  A
C1646     Br1651   1.938       .  S
C1647      C1648   1.388       .  A
C1648     Br1649   1.934       .  S
C1653      C1654   1.407       .  A
C1653      C1658   1.431       .  A
C1653     Br1660   1.930       .  S
C1654      C1655   1.414       .  A
C1655      C1656   1.422       .  A
C1655     Br1662   1.945       .  S
C1656      C1657   1.451       .  A
C1656     Br1661   1.945       .  S
C1657      C1658   1.461       .  A
C1658     Br1659   1.941       .  S
C1663      C1664   1.407       .  A
C1663      C1668   1.412       .  A
C1663     Br1670   1.927       .  S
C1664      C1665   1.389       .  A
C1665      C1666   1.412       .  A
C1665     Br1672   1.935       .  S
C1666      C1667   1.459       .  A
C1666     Br1671   1.938       .  S
C1667      C1668   1.425       .  A
C1668     Br1669   1.937       .  S
C1673      C1674   1.398       .  A
C1673      C1678   1.424       .  A
C1673     Br1680   1.934       .  S
C1674      C1675   1.393       .  A
C1675      C1676   1.425       .  A
C1675     Br1682   1.943       .  S
C1676      C1677   1.465       .  A
C1676     Br1681   1.926       .  S
C1677      C1678   1.462       .  A
C1678     Br1679   1.950       .  S
C1683      C1684   1.441       .  A
C1683      C1688   1.447       .  A
C1683     Br1690   1.916       .  S
C1684      C1685   1.435       .  A
C1685      C1686   1.388       .  A
C1685     Br1692   1.928       .  S
C1686      C1687   1.395       .  A
C1686     Br1691   1.927       .  S
C1687      C1688   1.431       .  A
C1688     Br1689   1.925       .  S
C1693      C1694   1.392       .  A
C1693      C1698   1.414       .  A
C1693     Br1700   1.916       .  S
C1694      C1695   1.381       .  A
C1695      C1696   1.413       .  A
C1695     Br1702   1.937       .  S
C1696      C1697   1.458       .  A
C1696     Br1701   1.907       .  S
C1697      C1698   1.437       .  A
C1698     Br1699   1.918       .  S
C1703      C1704   1.457       .  A
C1703      C1708   1.411       .  A
C1703     Br1710   1.944       .  S
C1704      C1705   1.449       .  A
C1705      C1706   1.409       .  A
C1705     Br1712   1.943       .  S
C1706      C1707   1.403       .  A
C1706     Br1711   1.919       .  S
C1707      C1708   1.399       .  A
C1708     Br1709   1.938       .  S
C1713      C1714   1.426       .  A
C1713      C1718   1.422       .  A
C1713     Br1720   1.916       .  S
C1714      C1715   1.427       .  A
C1715      C1716   1.392       .  A
C1715     Br1722   1.939       .  S
C1716      C1717   1.417       .  A
C1716     Br1721   1.942       .  S
C1717      C1718   1.417       .  A
C1718     Br1719   1.929       .  S
C1723      C1724   1.397       .  A
C1723      C1728   1.422       .  A
C1723     Br1730   1.917       .  S
C1724      C1725   1.389       .  A
C1725      C1726   1.398       .  A
C1725     Br1732   1.926       .  S
C1726      C1727   1.436       .  A
C1726     Br1731   1.924       .  S
C1727      C1728   1.447       .  A
C1728     Br1729   1.921       .  S
C1733      C1734   1.405       .  A
C1733      C1738   1.410       .  A
C1733     Br1740   1.921       .  S
C1734      C1735   1.398       .  A
C1735      C1736   1.408       .  A
C1735     Br1742   1.941       .  S
C1736      C1737   1.463       .  A
C1736     Br1741   1.956       .  S
C1737      C1738   1.404       .  A
C1738     Br1739   1.900       .  S
C1743      C1744   1.415       .  A
C1743      C1748   1.399       .  A
C1743     Br1750   1.928       .  S
C1744      C1745   1.415       .  A
C1745      C1746   1.432       .  A
C1745     Br1752   1.924       .  S
C1746      C1747   1.447       .  A
C1746     Br1751   1.939       .  S
C1747      C1748   1.424       .  A
C1748     Br1749   1.930       .  S
C1753      C1754   1.395       .  A
C1753      C1758   1.410       .  A
C1753     Br1760   1.933       .  S
C1754      C1755   1.396       .  A
C1755      C1756   1.420       .  A
C1755     Br1762   1.922       .  S
C1756      C1757   1.457       .  A
C1756     Br1761   1.929       .  S
C1757      C1758   1.456       .  A
C1758     Br1759   1.940       .  S
C1763      C1764   1.401       .  A
C1763      C1768   1.422       .  A
C1763     Br1770   1.941   1_545  S
C1764      C1765   1.412       .  A
C1765      C1766   1.433       .  A
C1765     Br1772   1.936       .  S
C1766      C1767   1.467       .  A
C1766     Br1771   1.954       .  S
C1767      C1768   1.461       .  A
C1768     Br1769   1.936       .  S
C1773      C1774   1.451       .  A
C1773      C1778   1.416       .  A
C1773     Br1780   1.939       .  S
C1774      C1775   1.426       .  A
C1775      C1776   1.403       .  A
C1775     Br1782   1.922       .  S
C1776      C1777   1.406       .  A
C1776     Br1781   1.906       .  S
C1777      C1778   1.414       .  A
C1778     Br1779   1.935       .  S
C1783      C1784   1.405       .  A
C1783      C1788   1.424       .  A
C1783     Br1790   1.935       .  S
C1784      C1785   1.398       .  A
C1785      C1786   1.404       .  A
C1785     Br1792   1.884       .  S
C1786      C1787   1.440       .  A
C1786     Br1791   1.941       .  S
C1787      C1788   1.463       .  A
C1788     Br1789   1.938       .  S
C1793      C1794   1.449       .  A
C1793      C1798   1.399       .  A
C1793     Br1800   1.939       .  S
C1794      C1795   1.439       .  A
C1795      C1796   1.425       .  A
C1795     Br1802   1.954       .  S
C1796      C1797   1.417       .  A
C1796     Br1801   1.902       .  S
C1797      C1798   1.394       .  A
C1798     Br1799   1.940       .  S
C1803      C1804   1.413       .  A
C1803      C1808   1.403       .  A
C1803     Br1810   1.924       .  S
C1804      C1805   1.411       .  A
C1805      C1806   1.427       .  A
C1805     Br1812   1.946       .  S
C1806      C1807   1.460       .  A
C1806     Br1811   1.928       .  S
C1807      C1808   1.410       .  A
C1808     Br1809   1.921       .  S
C1813      C1814   1.397       .  A
C1813      C1818   1.415       .  A
C1813     Br1820   1.938       .  S
C1814      C1815   1.392       .  A
C1815      C1816   1.401       .  A
C1815     Br1822   1.935       .  S
C1816      C1817   1.445       .  A
C1816     Br1821   1.931       .  S
C1817      C1818   1.449       .  A
C1818     Br1819   1.922       .  S
C1823      C1824   1.452       .  A
C1823      C1828   1.392       .  A
C1823     Br1830   1.920       .  S
C1824      C1825   1.427       .  A
C1825      C1826   1.424       .  A
C1825     Br1832   1.927       .  S
C1826      C1827   1.413       .  A
C1826     Br1831   1.900       .  S
C1827      C1828   1.387       .  A
C1828     Br1829   1.948       .  S
C1833      C1834   1.423       .  A
C1833      C1838   1.427       .  A
C1833     Br1840   1.945       .  S
C1834      C1835   1.409       .  A
C1835      C1836   1.418       .  A
C1835     Br1842   1.943   1_545  S
C1836      C1837   1.452       .  A
C1836     Br1841   1.937       .  S
C1837      C1838   1.449       .  A
C1838     Br1839   1.945       .  S
C1843      C1844   1.393       .  A
C1843      C1848   1.419       .  A
C1843     Br1850   1.936       .  S
C1844      C1845   1.424       .  A
C1845      C1846   1.419       .  A
C1845     Br1852   1.944       .  S
C1846      C1847   1.437       .  A
C1846     Br1851   1.930       .  S
C1847      C1848   1.458       .  A
C1848     Br1849   1.926       .  S
C1853      C1854   1.416       .  A
C1853      C1858   1.399       .  A
C1853     Br1860   1.948       .  S
C1854      C1855   1.409       .  A
C1855      C1856   1.411       .  A
C1855     Br1862   1.942       .  S
C1856      C1857   1.456       .  A
C1856     Br1861   1.956       .  S
C1857      C1858   1.451       .  A
C1858     Br1859   1.955       .  S
C1863      C1864   1.402       .  A
C1863      C1868   1.405       .  A
C1863     Br1870   1.960       .  S
C1864      C1865   1.402       .  A
C1865      C1866   1.422       .  A
C1865     Br1872   1.927       .  S
C1866      C1867   1.452       .  A
C1866     Br1871   1.936       .  S
C1867      C1868   1.459       .  A
C1868     Br1869   1.944       .  S
C1873      C1874   1.441       .  A
C1873      C1878   1.403       .  A
C1873     Br1880   1.937       .  S
C1874      C1875   1.455       .  A
C1875      C1876   1.411       .  A
C1875     Br1882   1.949       .  S
C1876      C1877   1.395       .  A
C1876     Br1881   1.932       .  S
C1877      C1878   1.398       .  A
C1878     Br1879   1.927       .  S
C1883      C1884   1.454       .  A
C1883      C1888   1.414       .  A
C1883     Br1890   1.936       .  S
C1884      C1885   1.446       .  A
C1885      C1886   1.423       .  A
C1885     Br1892   1.936       .  S
C1886      C1887   1.413       .  A
C1886     Br1891   1.922       .  S
C1887      C1888   1.410       .  A
C1888     Br1889   1.949       .  S
C1893      C1894   1.428       .  A
C1893      C1898   1.423       .  A
C1893     Br1900   1.940       .  S
C1894      C1895   1.392       .  A
C1895      C1896   1.409       .  A
C1895     Br1902   1.935       .  S
C1896      C1897   1.452       .  A
C1896     Br1901   1.936       .  S
C1897      C1898   1.439       .  A
C1898     Br1899   1.952       .  S
C1903      C1904   1.410       .  A
C1903      C1908   1.404       .  A
C1903     Br1910   1.947       .  S
C1904      C1905   1.404       .  A
C1905      C1906   1.435       .  A
C1905     Br1912   1.930       .  S
C1906      C1907   1.461       .  A
C1906     Br1911   1.944       .  S
C1907      C1908   1.454       .  A
C1908     Br1909   1.947       .  S
C1913      C1914   1.419       .  A
C1913      C1918   1.436       .  A
C1913     Br1920   1.925       .  S
C1914      C1915   1.387       .  A
C1915      C1916   1.395       .  A
C1915     Br1922   1.938       .  S
C1916      C1917   1.450       .  A
C1916     Br1921   1.932       .  S
C1917      C1918   1.439       .  A
C1918     Br1919   1.937       .  S
C1923      C1924   1.393       .  A
C1923      C1928   1.403       .  A
C1923     Br1930   1.932       .  S
C1924      C1925   1.411       .  A
C1925      C1926   1.420       .  A
C1925     Br1932   1.925       .  S
C1926      C1927   1.434       .  A
C1926     Br1931   1.913       .  S
C1927      C1928   1.443       .  A
C1928     Br1929   1.919       .  S
C1933      C1934   1.459       .  A
C1933      C1938   1.421       .  A
C1933     Br1940   1.935       .  S
C1934      C1935   1.448       .  A
C1935      C1936   1.411       .  A
C1935     Br1942   1.929       .  S
C1936      C1937   1.408       .  A
C1936     Br1941   1.942       .  S
C1937      C1938   1.396       .  A
C1938     Br1939   1.930       .  S
C1943      C1944   1.402       .  A
C1943      C1948   1.436       .  A
C1943     Br1950   1.928       .  S
C1944      C1945   1.413       .  A
C1945      C1946   1.418       .  A
C1945     Br1952   1.943       .  S
C1946      C1947   1.455       .  A
C1946     Br1951   1.936       .  S
C1947      C1948   1.463       .  A
C1948     Br1949   1.936       .  S
C1953      C1954   1.403       .  A
C1953      C1958   1.419       .  A
C1953     Br1960   1.918       .  S
C1954      C1955   1.395       .  A
C1955      C1956   1.423       .  A
C1955     Br1962   1.931       .  S
C1956      C1957   1.464       .  A
C1956     Br1961   1.936       .  S
C1957      C1958   1.451       .  A
C1958     Br1959   1.941       .  S
C1963      C1964   1.381       .  A
C1963      C1968   1.420       .  A
C1963     Br1970   1.914       .  S
C1964      C1965   1.384       .  A
C1965      C1966   1.418       .  A
C1965     Br1972   1.926       .  S
C1966      C1967   1.465       .  A
C1966     Br1971   1.933       .  S
C1967      C1968   1.446       .  A
C1968     Br1969   1.921       .  S
C1973      C1974   1.431       .  A
C1973      C1978   1.427       .  A
C1973     Br1980   1.925       .  S
C1974      C1975   1.451       .  A
C1975      C1976   1.409       .  A
C1975     Br1982   1.930       .  S
C1976      C1977   1.400       .  A
C1976     Br1981   1.940       .  S
C1977      C1978   1.428       .  A
C1978     Br1979   1.936       .  S
C1983      C1984   1.418       .  A
C1983      C1988   1.435       .  A
C1983     Br1990   1.926       .  S
C1984      C1985   1.391       .  A
C1985      C1986   1.396       .  A
C1985     Br1992   1.924       .  S
C1986      C1987   1.437       .  A
C1986     Br1991   1.923       .  S
C1987      C1988   1.447       .  A
C1988     Br1989   1.923       .  S
C1993      C1994   1.389       .  A
C1993      C1998   1.404       .  A
C1993     Br2000   1.940       .  S
C1994      C1995   1.418       .  A
C1995      C1996   1.436       .  A
C1995     Br2002   1.942       .  S
C1996      C1997   1.423       .  A
C1996     Br2001   1.936       .  S
C1997      C1998   1.455       .  A
C1998     Br1999   1.933       .  S
C2003      C2004   1.388       .  A
C2003      C2008   1.417       .  A
C2003     Br2010   1.941       .  S
C2004      C2005   1.405       .  A
C2005      C2006   1.405       .  A
C2005     Br2012   1.938       .  S
C2006      C2007   1.440       .  A
C2006     Br2011   1.917       .  S
C2007      C2008   1.466       .  A
C2008     Br2009   1.926       .  S
C2013      C2014   1.417       .  A
C2013      C2018   1.409       .  A
C2013     Br2020   1.892       .  S
C2014      C2015   1.422       .  A
C2015      C2016   1.408       .  A
C2015     Br2022   1.920       .  S
C2016      C2017   1.415       .  A
C2016     Br2021   1.931       .  S
C2017      C2018   1.454       .  A
C2018     Br2019   1.942       .  S
C2023      C2024   1.391       .  A
C2023      C2028   1.391       .  A
C2023     Br2030   1.934       .  S
C2024      C2025   1.426       .  A
C2025      C2026   1.426       .  A
C2025     Br2032   1.935       .  S
C2026      C2027   1.438       .  A
C2026     Br2031   1.944       .  S
C2027      C2028   1.444       .  A
C2028     Br2029   1.937       .  S
C2033      C2034   1.388       .  A
C2033      C2038   1.403       .  A
C2033     Br2040   1.938       .  S
C2034      C2035   1.428       .  A
C2035      C2036   1.419       .  A
C2035     Br2042   1.945       .  S
C2036      C2037   1.429       .  A
C2036     Br2041   1.929       .  S
C2037      C2038   1.455       .  A
C2038     Br2039   1.944       .  S
C2043      C2044   1.408       .  A
C2043      C2048   1.408       .  A
C2043     Br2050   1.932       .  S
C2044      C2045   1.393       .  A
C2045      C2046   1.418       .  A
C2045     Br2052   1.933       .  S
C2046      C2047   1.460       .  A
C2046     Br2051   1.935       .  S
C2047      C2048   1.445       .  A
C2048     Br2049   1.936       .  S
C2053      C2054   1.427       .  A
C2053      C2058   1.420       .  A
C2053     Br2060   1.936   1_455  S
C2054      C2055   1.399       .  A
C2055      C2056   1.404       .  A
C2055     Br2062   1.923       .  S
C2056      C2057   1.424       .  A
C2056     Br2061   1.931       .  S
C2057      C2058   1.446       .  A
C2058     Br2059   1.958       .  S
C2063      C2064   1.437       .  A
C2063      C2068   1.431       .  A
C2063     Br2070   1.917       .  S
C2064      C2065   1.446       .  A
C2065      C2066   1.412       .  A
C2065     Br2072   1.930       .  S
C2066      C2067   1.413       .  A
C2066     Br2071   1.951       .  S
C2067      C2068   1.412       .  A
C2068     Br2069   1.911       .  S
C2073      C2074   1.431       .  A
C2073      C2078   1.441       .  A
C2073     Br2080   1.903       .  S
C2074      C2075   1.419       .  A
C2075      C2076   1.407       .  A
C2075     Br2082   1.946       .  S
C2076      C2077   1.441       .  A
C2076     Br2081   1.939       .  S
C2077      C2078   1.428       .  A
C2078     Br2079   1.927       .  S
C2083      C2084   1.396       .  A
C2083      C2088   1.425       .  A
C2083     Br2090   1.934       .  S
C2084      C2085   1.411       .  A
C2085      C2086   1.407       .  A
C2085     Br2092   1.948   1_655  S
C2086      C2087   1.453       .  A
C2086     Br2091   1.946       .  S
C2087      C2088   1.462       .  A
C2088     Br2089   1.938       .  S
C2093      C2094   1.436       .  A
C2093      C2098   1.391       .  A
C2093     Br2100   1.942       .  S
C2094      C2095   1.454       .  A
C2095      C2096   1.416       .  A
C2095     Br2102   1.918       .  S
C2096      C2097   1.389       .  A
C2096     Br2101   1.934       .  S
C2097      C2098   1.397       .  A
C2098     Br2099   1.915       .  S
C2103      C2104   1.400       .  A
C2103      C2108   1.429       .  A
C2103     Br2110   1.935       .  S
C2104      C2105   1.380       .  A
C2105      C2106   1.398       .  A
C2105     Br2112   1.916       .  S
C2106      C2107   1.430       .  A
C2106     Br2111   1.925       .  S
C2107      C2108   1.465       .  A
C2108     Br2109   1.929       .  S
C2113      C2114   1.400       .  A
C2113      C2118   1.409       .  A
C2113     Br2120   1.950       .  S
C2114      C2115   1.403       .  A
C2115      C2116   1.419       .  A
C2115     Br2122   1.902       .  S
C2116      C2117   1.442       .  A
C2116     Br2121   1.937       .  S
C2117      C2118   1.456       .  A
C2118     Br2119   1.932       .  S
C2123      C2124   1.423       .  A
C2123      C2128   1.414       .  A
C2123     Br2130   1.921       .  S
C2124      C2125   1.407       .  A
C2125      C2126   1.417       .  A
C2125     Br2132   1.939       .  S
C2126      C2127   1.450       .  A
C2126     Br2131   1.945       .  S
C2127      C2128   1.426       .  A
C2128     Br2129   1.945       .  S
C2133      C2134   1.397       .  A
C2133      C2138   1.407       .  A
C2133     Br2140   1.935       .  S
C2134      C2135   1.434       .  A
C2135      C2136   1.421       .  A
C2135     Br2142   1.951       .  S
C2136      C2137   1.436       .  A
C2136     Br2141   1.951       .  S
C2137      C2138   1.459       .  A
C2138     Br2139   1.953       .  S
C2143      C2144   1.386       .  A
C2143      C2148   1.390       .  A
C2143     Br2150   1.939       .  S
C2144      C2145   1.431       .  A
C2145      C2146   1.438       .  A
C2145     Br2152   1.922       .  S
C2146      C2147   1.427       .  A
C2146     Br2151   1.943       .  S
C2147      C2148   1.449       .  A
C2148     Br2149   1.933       .  S
C2153      C2154   1.394       .  A
C2153      C2158   1.413       .  A
C2153     Br2160   1.943       .  S
C2154      C2155   1.402       .  A
C2155      C2156   1.406       .  A
C2155     Br2162   1.929       .  S
C2156      C2157   1.442       .  A
C2156     Br2161   1.932       .  S
C2157      C2158   1.452       .  A
C2158     Br2159   1.920       .  S
C2163      C2164   1.380       .  A
C2163      C2168   1.381       .  A
C2163     Br2170   1.935       .  S
C2164      C2165   1.423       .  A
C2165      C2166   1.427       .  A
C2165     Br2172   1.932       .  S
C2166      C2167   1.433       .  A
C2166     Br2171   1.928       .  S
C2167      C2168   1.449       .  A
C2168     Br2169   1.934       .  S
C2173      C2174   1.386       .  A
C2173      C2178   1.410       .  A
C2173     Br2180   1.937       .  S
C2174      C2175   1.409       .  A
C2175      C2176   1.421       .  A
C2175     Br2182   1.935       .  S
C2176      C2177   1.450       .  A
C2176     Br2181   1.945       .  S
C2177      C2178   1.449       .  A
C2178     Br2179   1.916       .  S
C2183      C2184   1.394       .  A
C2183      C2188   1.411       .  A
C2183     Br2190   1.936       .  S
C2184      C2185   1.394       .  A
C2185      C2186   1.429       .  A
C2185     Br2192   1.936       .  S
C2186      C2187   1.469       .  A
C2186     Br2191   1.929       .  S
C2187      C2188   1.442       .  A
C2188     Br2189   1.902       .  S
C2193      C2194   1.432       .  A
C2193      C2198   1.420       .  A
C2193     Br2200   1.932       .  S
C2194      C2195   1.440       .  A
C2195      C2196   1.400       .  A
C2195     Br2202   1.933       .  S
C2196      C2197   1.399       .  A
C2196     Br2201   1.930       .  S
C2197      C2198   1.416       .  A
C2198     Br2199   1.911       .  S
C2203      C2204   1.451       .  A
C2203      C2208   1.422       .  A
C2203     Br2210   1.922       .  S
C2204      C2205   1.444       .  A
C2205      C2206   1.410       .  A
C2205     Br2212   1.935       .  S
C2206      C2207   1.399       .  A
C2206     Br2211   1.919       .  S
C2207      C2208   1.393       .  A
C2208     Br2209   1.933       .  S
C2213      C2214   1.405       .  A
C2213      C2218   1.411       .  A
C2213     Br2220   1.935       .  S
C2214      C2215   1.416       .  A
C2215      C2216   1.411       .  A
C2215     Br2222   1.920       .  S
C2216      C2217   1.446       .  A
C2216     Br2221   1.937       .  S
C2217      C2218   1.454       .  A
C2218     Br2219   1.938       .  S
C2223      C2224   1.469       .  A
C2223      C2228   1.432       .  A
C2223     Br2230   1.939       .  S
C2224      C2225   1.438       .  A
C2225      C2226   1.403       .  A
C2225     Br2232   1.943       .  S
C2226      C2227   1.416       .  A
C2226     Br2231   1.940       .  S
C2227      C2228   1.401       .  A
C2228     Br2229   1.931       .  S
C2233      C2234   1.390       .  A
C2233      C2238   1.419       .  A
C2233     Br2240   1.938       .  S
C2234      C2235   1.408       .  A
C2235      C2236   1.428       .  A
C2235     Br2242   1.932       .  S
C2236      C2237   1.454       .  A
C2236     Br2241   1.938       .  S
C2237      C2238   1.469       .  A
C2238     Br2239   1.935       .  S
C2243      C2244   1.397       .  A
C2243      C2248   1.420       .  A
C2243     Br2250   1.931       .  S
C2244      C2245   1.412       .  A
C2245      C2246   1.420       .  A
C2245     Br2252   1.933       .  S
C2246      C2247   1.441       .  A
C2246     Br2251   1.933       .  S
C2247      C2248   1.459       .  A
C2248     Br2249   1.944       .  S
C2253      C2254   1.379       .  A
C2253      C2258   1.405       .  A
C2253     Br2260   1.922       .  S
C2254      C2255   1.396       .  A
C2255      C2256   1.426       .  A
C2255     Br2262   1.923       .  S
C2256      C2257   1.460       .  A
C2256     Br2261   1.940       .  S
C2257      C2258   1.451       .  A
C2258     Br2259   1.924       .  S
C2263      C2264   1.441       .  A
C2263      C2268   1.437       .  A
C2263     Br2270   1.928       .  S
C2264      C2265   1.443       .  A
C2265      C2266   1.380       .  A
C2265     Br2272   1.930       .  S
C2266      C2267   1.378       .  A
C2266     Br2271   1.931       .  S
C2267      C2268   1.420       .  A
C2268     Br2269   1.927       .  S
C2273      C2274   1.403       .  A
C2273      C2278   1.417       .  A
C2273     Br2280   1.935       .  S
C2274      C2275   1.419       .  A
C2275      C2276   1.413       .  A
C2275     Br2282   1.940       .  S
C2276      C2277   1.431       .  A
C2276     Br2281   1.936       .  S
C2277      C2278   1.441       .  A
C2278     Br2279   1.918       .  S
C2283      C2284   1.392       .  A
C2283      C2288   1.421       .  A
C2283     Br2290   1.929       .  S
C2284      C2285   1.393       .  A
C2285      C2286   1.401       .  A
C2285     Br2292   1.927       .  S
C2286      C2287   1.448       .  A
C2286     Br2291   1.950       .  S
C2287      C2288   1.463       .  A
C2288     Br2289   1.941       .  S
C2293      C2294   1.462       .  A
C2293      C2298   1.428       .  A
C2293     Br2300   1.939       .  S
C2294      C2295   1.448       .  A
C2295      C2296   1.412       .  A
C2295     Br2302   1.939       .  S
C2296      C2297   1.394       .  A
C2296     Br2301   1.912       .  S
C2297      C2298   1.396       .  A
C2298     Br2299   1.930       .  S
C2303      C2304   1.450       .  A
C2303      C2308   1.435       .  A
C2303     Br2310   1.921       .  S
C2304      C2305   1.458       .  A
C2305      C2306   1.391       .  A
C2305     Br2312   1.936       .  S
C2306      C2307   1.405       .  A
C2306     Br2311   1.931       .  S
C2307      C2308   1.431       .  A
C2308     Br2309   1.930       .  S
C2313      C2314   1.450       .  A
C2313      C2318   1.405       .  A
C2313     Br2320   1.947       .  S
C2314      C2315   1.457       .  A
C2315      C2316   1.417       .  A
C2315     Br2322   1.934       .  S
C2316      C2317   1.393       .  A
C2316     Br2321   1.932       .  S
C2317      C2318   1.414       .  A
C2318     Br2319   1.943   1_655  S
C2323      C2324   1.444       .  A
C2323      C2328   1.391       .  A
C2323     Br2330   1.947       .  S
C2324      C2325   1.450       .  A
C2325      C2326   1.418       .  A
C2325     Br2332   1.950       .  S
C2326      C2327   1.417       .  A
C2326     Br2331   1.943       .  S
C2327      C2328   1.409       .  A
C2328     Br2329   1.942       .  S
C2333      C2334   1.440       .  A
C2333      C2338   1.414       .  A
C2333     Br2340   1.938       .  S
C2334      C2335   1.442       .  A
C2335      C2336   1.425       .  A
C2335     Br2342   1.902       .  S
C2336      C2337   1.398       .  A
C2336     Br2341   1.933       .  S
C2337      C2338   1.398       .  A
C2338     Br2339   1.893   1_565  S
C2343      C2344   1.415       .  A
C2343      C2348   1.410       .  A
C2343     Br2350   1.923       .  S
C2344      C2345   1.417       .  A
C2345      C2346   1.403       .  A
C2345     Br2352   1.911       .  S
C2346      C2347   1.400       .  A
C2346     Br2351   1.918       .  S
C2347      C2348   1.411       .  A
C2348     Br2349   1.921       .  S
C2353      C2354   1.463       .  A
C2353      C2358   1.416       .  A
C2353     Br2360   1.932       .  S
C2354      C2355   1.461       .  A
C2355      C2356   1.425       .  A
C2355     Br2362   1.905       .  S
C2356      C2357   1.387       .  A
C2356     Br2361   1.942       .  S
C2357      C2358   1.396       .  A
C2358     Br2359   1.943       .  S
C2363      C2364   1.435       .  A
C2363      C2368   1.414       .  A
C2363     Br2370   1.930       .  S
C2364      C2365   1.447       .  A
C2365      C2366   1.423       .  A
C2365     Br2372   1.927       .  S
C2366      C2367   1.402       .  A
C2366     Br2371   1.930       .  S
C2367      C2368   1.418       .  A
C2368     Br2369   1.939       .  S
C2373      C2374   1.464       .  A
C2373      C2378   1.432       .  A
C2373     Br2380   1.920       .  S
C2374      C2375   1.416       .  A
C2375      C2376   1.411       .  A
C2375     Br2382   1.891       .  S
C2376      C2377   1.390       .  A
C2376     Br2381   1.918       .  S
C2377      C2378   1.398       .  A
C2378     Br2379   1.943       .  S
C2383      C2384   1.412       .  A
C2383      C2388   1.424       .  A
C2383     Br2390   1.892       .  S
C2384      C2385   1.437       .  A
C2385      C2386   1.407       .  A
C2385     Br2392   1.930       .  S
C2386      C2387   1.402       .  A
C2386     Br2391   1.933       .  S
C2387      C2388   1.414       .  A
C2388     Br2389   1.933       .  S
C2393      C2394   1.418       .  A
C2393      C2398   1.395       .  A
C2393     Br2400   1.921       .  S
C2394      C2395   1.439       .  A
C2395      C2396   1.432       .  A
C2395     Br2402   1.929       .  S
C2396      C2397   1.445       .  A
C2396     Br2401   1.946       .  S
C2397      C2398   1.415       .  A
C2398     Br2399   1.925       .  S
C2403      C2404   1.406       .  A
C2403      C2408   1.423       .  A
C2403     Br2410   1.930       .  S
C2404      C2405   1.402       .  A
C2405      C2406   1.421       .  A
C2405     Br2412   1.935       .  S
C2406      C2407   1.458       .  A
C2406     Br2411   1.917       .  S
C2407      C2408   1.408       .  A
C2408     Br2409   1.928       .  S
C2413      C2414   1.406       .  A
C2413      C2418   1.420       .  A
C2413     Br2420   1.935       .  S
C2414      C2415   1.392       .  A
C2415      C2416   1.389       .  A
C2415     Br2422   1.933   1_545  S
C2416      C2417   1.450       .  A
C2416     Br2421   1.942       .  S
C2417      C2418   1.448       .  A
C2418     Br2419   1.931       .  S
C2423      C2424   1.404       .  A
C2423      C2428   1.395       .  A
C2423     Br2430   1.927       .  S
C2424      C2425   1.473       .  A
C2425      C2426   1.425       .  A
C2425     Br2432   1.954       .  S
C2426      C2427   1.405       .  A
C2426     Br2431   1.939       .  S
C2427      C2428   1.430       .  A
C2428     Br2429   1.929       .  S
C2433      C2434   1.453       .  A
C2433      C2438   1.413       .  A
C2433     Br2440   1.948       .  S
C2434      C2435   1.434       .  A
C2435      C2436   1.409       .  A
C2435     Br2442   1.927       .  S
C2436      C2437   1.413       .  A
C2436     Br2441   1.926       .  S
C2437      C2438   1.409       .  A
C2438     Br2439   1.937       .  S
C2443      C2444   1.457       .  A
C2443      C2448   1.415       .  A
C2443     Br2450   1.937       .  S
C2444      C2445   1.447       .  A
C2445      C2446   1.420       .  A
C2445     Br2452   1.937       .  S
C2446      C2447   1.401       .  A
C2446     Br2451   1.892   1_565  S
C2447      C2448   1.405       .  A
C2448     Br2449   1.945       .  S
C2453      C2454   1.465       .  A
C2453      C2458   1.410       .  A
C2453     Br2460   1.929       .  S
C2454      C2455   1.449       .  A
C2455      C2456   1.412       .  A
C2455     Br2462   1.951       .  S
C2456      C2457   1.403       .  A
C2456     Br2461   1.918       .  S
C2457      C2458   1.386       .  A
C2458     Br2459   1.938       .  S
C2463      C2464   1.401       .  A
C2463      C2468   1.395       .  A
C2463     Br2470   1.881       .  S
C2464      C2465   1.392       .  A
C2465      C2466   1.402       .  A
C2465     Br2472   1.934       .  S
C2466      C2467   1.464       .  A
C2466     Br2471   1.950       .  S
C2467      C2468   1.410       .  A
C2468     Br2469   1.927       .  S
C2473      C2474   1.411       .  A
C2473      C2478   1.435       .  A
C2473     Br2480   1.943       .  S
C2474      C2475   1.400       .  A
C2475      C2476   1.406       .  A
C2475     Br2482   1.928   1_455  S
C2476      C2477   1.448       .  A
C2476     Br2481   1.940       .  S
C2477      C2478   1.466       .  A
C2478     Br2479   1.952       .  S
C2483      C2484   1.423       .  A
C2483      C2488   1.411       .  A
C2483     Br2490   1.936       .  S
C2484      C2485   1.444       .  A
C2485      C2486   1.409       .  A
C2485     Br2492   1.945       .  S
C2486      C2487   1.407       .  A
C2486     Br2491   1.935       .  S
C2487      C2488   1.409       .  A
C2488     Br2489   1.927       .  S
C2493      C2494   1.391       .  A
C2493      C2498   1.392       .  A
C2493     Br2500   1.918       .  S
C2494      C2495   1.401       .  A
C2495      C2496   1.409       .  A
C2495     Br2502   1.938   1_545  S
C2496      C2497   1.460       .  A
C2496     Br2501   1.941       .  S
C2497      C2498   1.440       .  A
C2498     Br2499   1.920       .  S
C2503      C2504   1.388       .  A
C2503      C2508   1.415       .  A
C2503     Br2510   1.926       .  S
C2504      C2505   1.404       .  A
C2505      C2506   1.428       .  A
C2505     Br2512   1.946   1_554  S
C2506      C2507   1.458       .  A
C2506     Br2511   1.920       .  S
C2507      C2508   1.463       .  A
C2508     Br2509   1.930       .  S
C2513      C2514   1.413       .  A
C2513      C2518   1.402       .  A
C2513     Br2520   1.962       .  S
C2514      C2515   1.415       .  A
C2515      C2516   1.433       .  A
C2515     Br2522   1.934   1_556  S
C2516      C2517   1.463       .  A
C2516     Br2521   1.957       .  S
C2517      C2518   1.449       .  A
C2518     Br2519   1.934       .  S
C2523      C2524   1.406       .  A
C2523      C2528   1.398       .  A
C2523     Br2530   1.921       .  S
C2524      C2525   1.443       .  A
C2525      C2526   1.433       .  A
C2525     Br2532   1.940       .  S
C2526      C2527   1.425       .  A
C2526     Br2531   1.933       .  S
C2527      C2528   1.419       .  A
C2528     Br2529   1.928       .  S
C2533      C2534   1.408       .  A
C2533      C2538   1.417       .  A
C2533     Br2540   1.934       .  S
C2534      C2535   1.405       .  A
C2535      C2536   1.409       .  A
C2535     Br2542   1.941   1_554  S
C2536      C2537   1.444       .  A
C2536     Br2541   1.926       .  S
C2537      C2538   1.431       .  A
C2538     Br2539   1.899       .  S
C2543      C2544   1.415       .  A
C2543      C2548   1.417       .  A
C2543     Br2550   1.952       .  S
C2544      C2545   1.407       .  A
C2545      C2546   1.418       .  A
C2545     Br2552   1.937       .  S
C2546      C2547   1.458       .  A
C2546     Br2551   1.952       .  S
C2547      C2548   1.432       .  A
C2548     Br2549   1.901       .  S
C2553      C2554   1.413       .  A
C2553      C2558   1.424       .  A
C2553     Br2560   1.940       .  S
C2554      C2555   1.423       .  A
C2555      C2556   1.406       .  A
C2555     Br2562   1.936       .  S
C2556      C2557   1.434       .  A
C2556     Br2561   1.943       .  S
C2557      C2558   1.450       .  A
C2558     Br2559   1.932       .  S
C2563      C2564   1.428       .  A
C2563      C2568   1.429       .  A
C2563     Br2570   1.925       .  S
C2564      C2565   1.421       .  A
C2565      C2566   1.404       .  A
C2565     Br2572   1.906       .  S
C2566      C2567   1.417       .  A
C2566     Br2571   1.941       .  S
C2567      C2568   1.409       .  A
C2568     Br2569   1.918       .  S
C2573      C2574   1.390       .  A
C2573      C2578   1.419       .  A
C2573     Br2580   1.940       .  S
C2574      C2575   1.391       .  A
C2575      C2576   1.412       .  A
C2575     Br2582   1.937       .  S
C2576      C2577   1.455       .  A
C2576     Br2581   1.941       .  S
C2577      C2578   1.461       .  A
C2578     Br2579   1.926       .  S
C2583      C2584   1.404       .  A
C2583      C2588   1.418       .  A
C2583     Br2590   1.940       .  S
C2584      C2585   1.386       .  A
C2585      C2586   1.414       .  A
C2585     Br2592   1.924       .  S
C2586      C2587   1.447       .  A
C2586     Br2591   1.931       .  S
C2587      C2588   1.461       .  A
C2588     Br2589   1.942       .  S
C2593      C2594   1.390       .  A
C2593      C2598   1.410       .  A
C2593     Br2600   1.938       .  S
C2594      C2595   1.390       .  A
C2595      C2596   1.413       .  A
C2595     Br2602   1.926       .  S
C2596      C2597   1.448       .  A
C2596     Br2601   1.947       .  S
C2597      C2598   1.449       .  A
C2598     Br2599   1.936       .  S
C2603      C2604   1.401       .  A
C2603      C2608   1.411       .  A
C2603     Br2610   1.950       .  S
C2604      C2605   1.402       .  A
C2605      C2606   1.424       .  A
C2605     Br2612   1.938       .  S
C2606      C2607   1.458       .  A
C2606     Br2611   1.955       .  S
C2607      C2608   1.457       .  A
C2608     Br2609   1.938       .  S
C2613      C2614   1.426       .  A
C2613      C2618   1.400       .  A
C2613     Br2620   1.940       .  S
C2614      C2615   1.397       .  A
C2615      C2616   1.412       .  A
C2615     Br2622   1.941       .  S
C2616      C2617   1.452       .  A
C2616     Br2621   1.938       .  S
C2617      C2618   1.416       .  A
C2618     Br2619   1.942       .  S
C2623      C2624   1.407       .  A
C2623      C2628   1.423       .  A
C2623     Br2630   1.938       .  S
C2624      C2625   1.411       .  A
C2625      C2626   1.402       .  A
C2625     Br2632   1.951       .  S
C2626      C2627   1.449       .  A
C2626     Br2631   1.960       .  S
C2627      C2628   1.442       .  A
C2628     Br2629   1.927       .  S
C2633      C2634   1.428       .  A
C2633      C2638   1.409       .  A
C2633     Br2640   1.935       .  S
C2634      C2635   1.454       .  A
C2635      C2636   1.411       .  A
C2635     Br2642   1.935       .  S
C2636      C2637   1.391       .  A
C2636     Br2641   1.943       .  S
C2637      C2638   1.404       .  A
C2638     Br2639   1.929       .  S
C2643      C2644   1.399       .  A
C2643      C2648   1.428       .  A
C2643     Br2650   1.932       .  S
C2644      C2645   1.389       .  A
C2645      C2646   1.417       .  A
C2645     Br2652   1.930       .  S
C2646      C2647   1.442       .  A
C2646     Br2651   1.902       .  S
C2647      C2648   1.463       .  A
C2648     Br2649   1.935       .  S
C2653      C2654   1.382       .  A
C2653      C2658   1.402       .  A
C2653     Br2660   1.910       .  S
C2654      C2655   1.402       .  A
C2655      C2656   1.430       .  A
C2655     Br2662   1.930       .  S
C2656      C2657   1.455       .  A
C2656     Br2661   1.933       .  S
C2657      C2658   1.439       .  A
C2658     Br2659   1.926       .  S
C2663      C2664   1.394       .  A
C2663      C2668   1.417       .  A
C2663     Br2670   1.918       .  S
C2664      C2665   1.406       .  A
C2665      C2666   1.424       .  A
C2665     Br2672   1.949       .  S
C2666      C2667   1.466       .  A
C2666     Br2671   1.919       .  S
C2667      C2668   1.455       .  A
C2668     Br2669   1.927       .  S
