geometry optimzed in LAMMPS
_audit_creation_date              2020-11-30 
_audit_creation_method            'lammps2cif' 
_symmetry_space_group_name_H-M    'P1' 
_symmetry_Int_Tables_number       1 
_symmetry_cell_setting            triclinic 
loop_ 
_symmetry_equiv_pos_as_xyz 
  x,y,z 
_cell_length_a                    32.42489397 
_cell_length_b                    31.6442243213841 
_cell_length_c                    32.21540456537854 
_cell_angle_alpha                 89.66945848100318 
_cell_angle_beta                  90.25833454557065 
_cell_angle_gamma                 90.88482109078934 
loop_ 
_atom_site_label 
_atom_site_type_symbol 
_atom_site_fract_x 
_atom_site_fract_y 
_atom_site_fract_z 
_atom_site_charge 
O1          O  0.29562686  0.67082717  0.78733592    -0.78400
O2          O  0.29707080  0.84094950  0.71520714    -0.78500
O3          O  0.25278650  0.70011740  0.66237920    -0.78500
O4          O  0.32567404  0.76491742  0.83400188    -0.78400
O5          O  0.29484115  0.75578859  0.67198449    -0.78500
O6          O  0.27935015  0.71925968  0.85659140    -0.78500
O7          O  0.33443547  0.82410347  0.76974252    -0.78400
O8          O  0.30424277  0.68617649  0.72256305    -0.78500
C9          C  0.30825678  0.66038004  0.75187928     1.11300
C10         C  0.32593903  0.84996210  0.74090697     1.11100
C11         C  0.28064917  0.72509002  0.64825225     1.11300
C12         C  0.31083025  0.74298716  0.86348149     1.11200
O13         O  0.20596065  0.74949464  0.82078206    -0.78400
O14         O  0.23514463  0.81134080  0.66499143    -0.78500
O15         O  0.22066457  0.67002618  0.74268429    -0.78400
O16         O  0.25610463  0.85763834  0.78713389    -0.78400
O17         O  0.21609332  0.82198906  0.74556865    -0.78500
O18         O  0.22129008  0.66402180  0.81327917    -0.78400
O19         O  0.24578592  0.79619223  0.85264610    -0.78400
O20         O  0.20379973  0.75507295  0.69167826    -0.78500
Co21       Co  0.25094332  0.71306769  0.80007808     1.51500
Co22       Co  0.25782297  0.78965542  0.71418495     1.51700
Co23       Co  0.25512359  0.72255010  0.71655972     1.51600
Co24       Co  0.28961322  0.80778616  0.80830593     1.51500
O25         O  0.27333782  0.75994995  0.76705430    -1.40400
C26         C  0.21389661  0.77208814  0.85255834     1.11200
C27         C  0.20820451  0.78247832  0.66104975     1.11300
C28         C  0.21359710  0.64862914  0.77738376     1.11200
C29         C  0.22620735  0.85682646  0.76175474     1.11200
O30         O  0.74314945  0.18643927  0.67466836    -0.78400
O31         O  0.76354612  0.15368904  0.83191070    -0.78500
O32         O  0.82657822  0.21791097  0.71131546    -0.78500
O33         O  0.67873630  0.18112749  0.78014260    -0.78400
O34         O  0.82348493  0.16365728  0.75784036    -0.78500
O35         O  0.66854842  0.19835664  0.71529208    -0.78500
O36         O  0.71403608  0.19800466  0.85101621    -0.78400
O37         O  0.79966074  0.22265518  0.67537318    -0.78500
C38         C  0.77629018  0.19645660  0.65628235     1.11300
C39         C  0.73669970  0.16633367  0.85872744     1.11100
C40         C  0.84208188  0.18392733  0.72830669     1.11300
C41         C  0.65749415  0.17824568  0.74749148     1.11200
O42         O  0.69300673  0.27730390  0.74765632    -0.78400
O43         O  0.84459479  0.24040373  0.78997894    -0.78500
O44         O  0.77002096  0.29200620  0.67173857    -0.78400
O45         O  0.74252486  0.27801311  0.82892841    -0.78400
O46         O  0.78921344  0.23364447  0.85290648    -0.78500
O47         O  0.70782992  0.26188353  0.66208008    -0.78400
O48         O  0.65771814  0.25908288  0.80396917    -0.78400
O49         O  0.82147518  0.28881192  0.74579795    -0.78500
Co50       Co  0.72189523  0.23123973  0.71348878     1.51500
Co51       Co  0.80212283  0.19743068  0.80494506     1.51700
Co52       Co  0.77435240  0.25482609  0.72266887     1.51600
Co53       Co  0.71066151  0.23131868  0.79916559     1.51500
O54         O  0.75560811  0.21309175  0.76571590    -1.40400
C55         C  0.65795597  0.27482817  0.76708964     1.11200
C56         C  0.84952646  0.27419677  0.76934287     1.11300
C57         C  0.73699518  0.28667746  0.64921410     1.11200
C58         C  0.76856931  0.26690595  0.85704891     1.11200
O59         O  0.68004309  0.73163073  0.16368032    -0.78400
O60         O  0.82201379  0.78672240  0.18949483    -0.78500
O61         O  0.69444581  0.84346463  0.25183081    -0.78500
O62         O  0.79105830  0.65413477  0.22589138    -0.78400
O63         O  0.73939590  0.82887493  0.20105317    -0.78500
O64         O  0.74846731  0.66848605  0.17297679    -0.78500
O65         O  0.83410334  0.72246754  0.21111517    -0.78400
O66         O  0.66734479  0.78061155  0.20922176    -0.78500
C67         C  0.65638467  0.76035197  0.17736851     1.11300
C68         C  0.84526547  0.75464640  0.19026657     1.11100
C69         C  0.71285058  0.85424351  0.21815583     1.11300
C70         C  0.77551207  0.64481229  0.19062525     1.11200
O71         O  0.71625225  0.65050297  0.25097325    -0.78400
O72         O  0.80274885  0.84359362  0.25083478    -0.78500
O73         O  0.67439381  0.75975499  0.28927545    -0.78400
O74         O  0.83888783  0.69744132  0.28864289    -0.78400
O75         O  0.82633996  0.76595002  0.27517076    -0.78500
O76         O  0.65560783  0.70858046  0.24493680    -0.78400
O77         O  0.75370902  0.68368530  0.29875619    -0.78400
O78         O  0.75675557  0.81404226  0.29341505    -0.78500
Co79       Co  0.70350863  0.69340280  0.20819520     1.51500
Co80       Co  0.78011873  0.79124669  0.23524234     1.51700
Co81       Co  0.71468472  0.78828563  0.24919421     1.51600
Co82       Co  0.79142712  0.70878684  0.25583600     1.51500
O83         O  0.74601477  0.73721040  0.22911714    -1.40400
C84         C  0.73201245  0.65190790  0.28699101     1.11200
C85         C  0.78220100  0.84556680  0.28412876     1.11300
C86         C  0.64809824  0.73149115  0.27642359     1.11200
C87         C  0.84845300  0.73659120  0.29277977     1.11200
C88         C  0.47744273  0.01790871  0.06094433     0.04000
C89         C  0.44291794  0.99619508  0.04506787     0.04000
C90         C  0.42430277  0.01038815  0.00828017     0.04000
C91         C  0.44348308  0.04263271  0.98489070     0.04000
C92         C  0.47914529  0.06312117  0.99987673     0.04000
C93         C  0.49702954  0.04939296  0.03706317     0.04000
C94         C  0.68336973  0.04434222  0.21300935     0.81900
N95         N  0.64423769  0.04269158  0.19796409    -0.76400
C96         C  0.62623394  0.00467372  0.18957789     0.84400
N97         N  0.64718645  0.96853285  0.19555753    -0.76300
C98         C  0.68609556  0.96988319  0.21078310     0.84500
N99         N  0.70407779  0.00780069  0.21984619    -0.78000
C100        C  0.70673239  0.18566637  0.04829781     0.81900
N101        N  0.72192838  0.19355437  0.00927388    -0.76400
C102        C  0.71663186  0.16447694  0.97804036     0.84400
N103        N  0.69560691  0.12801066  0.98621756    -0.76300
C104        C  0.68099492  0.12016468  0.02496749     0.84500
N105        N  0.68617352  0.14896323  0.05545441    -0.78000
C106        C  0.31245189  0.04117336  0.77312152     0.81900
N107        N  0.30675954  0.00538549  0.74954339    -0.76400
C108        C  0.33214550  0.97114036  0.75472359     0.84400
N109        N  0.36387511  0.97412910  0.78230839    -0.76300
C110        C  0.37028610  0.01021178  0.80390635     0.84500
N111        N  0.34466911  0.04302291  0.79948095    -0.78000
C112        C  0.54554701  0.17044876  0.76643658     0.81900
N113        N  0.55085280  0.16286135  0.80769311    -0.76400
C114        C  0.51889771  0.16643287  0.83429169     0.84400
N115        N  0.48117673  0.17713118  0.81995179    -0.76300
C116        C  0.47520715  0.18460480  0.77894939     0.84500
N117        N  0.50750954  0.18134786  0.75213024    -0.78000
C118        C  0.46797601  0.80217784  0.20363892     0.81900
N119        N  0.50692519  0.78607633  0.21000934    -0.76400
C120        C  0.53752183  0.79086019  0.18026338     0.84400
N121        N  0.52838228  0.81199857  0.14449408    -0.76300
C122        C  0.48978998  0.82744659  0.13841585     0.84500
N123        N  0.46049868  0.82273651  0.16777876    -0.78000
C124        C  0.29235525  0.80556000  0.04256730     0.81900
N125        N  0.29465183  0.77341600  0.01427881    -0.76400
C126        C  0.30323598  0.78214287  0.97357040     0.84400
N127        N  0.30910638  0.82303554  0.96167291    -0.76300
C128        C  0.30578379  0.85471347  0.98944686     0.84500
N129        N  0.29785247  0.84598601  0.02976752    -0.78000
C130        C  0.93222277  0.51514873  0.92608172     0.04000
C131        C  0.96387309  0.51348423  0.89672575     0.04000
C132        C  0.00029252  0.53719255  0.90300172     0.04000
C133        C  0.00293582  0.56634422  0.93542526     0.04000
C134        C  0.96930374  0.57170322  0.96201195     0.04000
C135        C  0.93461242  0.54497164  0.95830045     0.04000
C136        C  0.19054818  0.74721703  0.96883794     0.81900
N137        N  0.16782677  0.71167307  0.96233198    -0.76400
C138        C  0.15832384  0.68501857  0.99386215     0.84400
N139        N  0.17126386  0.69318557  0.03291316    -0.76300
C140        C  0.19404234  0.72837251  0.04087331     0.84500
N141        N  0.20349934  0.75592049  0.00873294    -0.78000
C142        C  0.21827590  0.52806653  0.79592050     0.81900
N143        N  0.24725475  0.49681539  0.79661318    -0.76400
C144        C  0.23592558  0.45582268  0.80603139     0.84400
N145        N  0.19589117  0.44709046  0.81591394    -0.76300
C146        C  0.16766239  0.47820658  0.81505211     0.84500
N147        N  0.17888447  0.51807774  0.80499991    -0.78000
C148        C  0.96370467  0.73623649  0.17592621     0.81900
N149        N  0.96238689  0.70969495  0.14320164    -0.76400
C150        C  0.99627802  0.68850675  0.13131996     0.84400
N151        N  0.03259165  0.69324373  0.15204977    -0.76300
C152        C  0.03560717  0.71966137  0.18495449     0.84500
N153        N  0.00089718  0.74164908  0.19668353    -0.78000
C154        C  0.81502271  0.53053280  0.18304354     0.81900
N155        N  0.81655109  0.49604893  0.20867677    -0.76400
C156        C  0.83164126  0.45850096  0.19479865     0.84400
N157        N  0.84540982  0.45594738  0.15503267    -0.76300
C158        C  0.84366467  0.49053192  0.12985303     0.84500
N159        N  0.82855439  0.52725551  0.14381959    -0.78000
C160        C  0.03794266  0.28145467  0.79571376     0.81900
N161        N  0.00027205  0.26340658  0.78729542    -0.76400
C162        C  0.96637653  0.28815793  0.78288002     0.84400
N163        N  0.97047809  0.33036122  0.78626722    -0.76300
C164        C  0.00739119  0.34845804  0.79427235     0.84500
N165        N  0.04117456  0.32425723  0.79966687    -0.78000
C166        C  0.82580312  0.28790604  0.04154475     0.81900
N167        N  0.84086928  0.32820159  0.03736391    -0.76400
C168        C  0.83717874  0.34876433  0.00024837     0.84400
N169        N  0.81880099  0.32971884  0.96755947    -0.76300
C170        C  0.80394593  0.28993731  0.97050947     0.84500
N171        N  0.80777988  0.26869873  0.00760668    -0.78000
C172        C  0.57658341  0.51372494  0.53496130     0.04000
C173        C  0.55085696  0.49760849  0.56637164     0.04000
C174        C  0.51325962  0.51731344  0.57472191     0.04000
C175        C  0.50015959  0.55110315  0.54967204     0.04000
C176        C  0.52572074  0.56680705  0.51797710     0.04000
C177        C  0.56268189  0.54650573  0.50925150     0.04000
C178        C  0.47582340  0.28367644  0.69859862     0.81900
N179        N  0.50551793  0.27503727  0.72814064    -0.76400
C180        C  0.54614852  0.28608569  0.72152527     0.84400
N181        N  0.55600731  0.30692949  0.68605060    -0.76300
C182        C  0.52704730  0.31613455  0.65725215     0.84500
N183        N  0.48702960  0.30480604  0.66353452    -0.78000
C184        C  0.28342551  0.68653939  0.53541691     0.81900
N185        N  0.26416515  0.69342288  0.49816329    -0.76400
C186        C  0.27553671  0.67160553  0.46341012     0.84400
N187        N  0.30572298  0.64229711  0.46667143    -0.76300
C188        C  0.32394219  0.63500454  0.50410274     0.84500
N189        N  0.31314150  0.65733379  0.53780948    -0.78000
C190        C  0.70996381  0.53573692  0.30620416     0.81900
N191        N  0.67621434  0.53784219  0.33018525    -0.76400
C192        C  0.65403894  0.50263936  0.33944274     0.84400
N193        N  0.66574581  0.46422450  0.32539932    -0.76300
C194        C  0.69963979  0.46163244  0.30088854     0.84500
N195        N  0.72157655  0.49756290  0.29127434    -0.78000
C196        C  0.53078154  0.69927688  0.29246641     0.81900
N197        N  0.52870469  0.68919759  0.33330864    -0.76400
C198        C  0.49267729  0.67578449  0.35041242     0.84400
N199        N  0.45802930  0.67200776  0.32694709    -0.76300
C200        C  0.45851566  0.68200132  0.28596869     0.84500
N201        N  0.49533436  0.69567718  0.26860079    -0.78000
C202        C  0.30626299  0.54173665  0.71535689     0.81900
N203        N  0.27652135  0.51002576  0.71211939    -0.76400
C204        C  0.28713215  0.46953264  0.70091675     0.84400
N205        N  0.32716301  0.46215696  0.69169785    -0.76300
C206        C  0.35619435  0.49323064  0.69439011     0.84500
N207        N  0.34582381  0.53264600  0.70619717    -0.78000
C208        C  0.70257919  0.30136658  0.45983866     0.81900
N209        N  0.71015296  0.28226109  0.49735960    -0.76400
C210        C  0.71311750  0.30582037  0.53281603     0.84400
N211        N  0.70845675  0.34813961  0.53035232    -0.76300
C212        C  0.70101323  0.36714222  0.49346687     0.84500
N213        N  0.69766154  0.34391325  0.45836760    -0.78000
C214        C  0.99688667  0.92958443  0.57527634     0.04000
C215        C  0.98189546  0.90520587  0.54199429     0.04000
C216        C  0.94785143  0.91916716  0.51877479     0.04000
C217        C  0.92708983  0.95568659  0.53062541     0.04000
C218        C  0.94286090  0.98054468  0.56305387     0.04000
C219        C  0.97581451  0.96595945  0.58721462     0.04000
C220        C  0.95826008  0.18735032  0.69637146     0.81900
N221        N  0.96729236  0.14591733  0.69313119    -0.76400
C222        C  0.00632376  0.13361005  0.68602848     0.84400
N223        N  0.03699930  0.16260204  0.68116811    -0.76300
C224        C  0.02936106  0.20446950  0.68452913     0.84500
N225        N  0.98969250  0.21696473  0.69268733    -0.78000
C226        C  0.21840488  0.03798371  0.68434298     0.81900
N227        N  0.18748151  0.02773537  0.65723914    -0.76400
C228        C  0.16849812  0.98908082  0.65988029     0.84400
N229        N  0.17960581  0.96107788  0.68948517    -0.76300
C230        C  0.20980356  0.97017445  0.71708228     0.84500
N231        N  0.22960257  0.00874800  0.71404505    -0.78000
C232        C  0.20451662  0.80210147  0.46817281     0.81900
N233        N  0.16298007  0.80437061  0.46309511    -0.76400
C234        C  0.13749880  0.79935829  0.49612398     0.84400
N235        N  0.15305333  0.79328331  0.53469538    -0.76300
C236        C  0.19416612  0.79132149  0.54096297     0.84500
N237        N  0.22009306  0.79548447  0.50742043    -0.78000
C238        C  0.81409732  0.19575253  0.54219802     0.81900
N239        N  0.80538401  0.21428767  0.50456062    -0.76400
C240        C  0.82800955  0.20488364  0.46974025     0.84400
N241        N  0.85963940  0.17721812  0.47338000    -0.76300
C242        C  0.86844280  0.15970469  0.51105627     0.84500
N243        N  0.84554288  0.16862107  0.54465631    -0.78000
C244        C  0.81814080  0.03813682  0.30409836     0.81900
N245        N  0.82533840  0.03907090  0.34560711    -0.76400
C246        C  0.82159406  0.00320166  0.36866852     0.84400
N247        N  0.81143423  0.96590139  0.35055093    -0.76300
C248        C  0.80427793  0.96401951  0.30921548     0.84500
N249        N  0.80742870  0.00039241  0.28597801    -0.78000
C250        C  0.03061163  0.79666238  0.30009402     0.81900
N251        N  0.99973297  0.76723828  0.29225898    -0.76400
C252        C  0.96102562  0.77209838  0.30854311     0.84400
N253        N  0.95417191  0.80572147  0.33294898    -0.76300
C254        C  0.98414038  0.83449574  0.34100309     0.84500
N255        N  0.02245947  0.83005762  0.32495117    -0.78000
O256        O  0.28044876  0.16210020  0.69671550    -0.78400
O257        O  0.20616944  0.34760525  0.70055556    -0.78500
O258        O  0.14841360  0.19622115  0.71299884    -0.78500
O259        O  0.34716026  0.30534408  0.71723103    -0.78400
O260        O  0.16919212  0.25873483  0.68459096    -0.78500
O261        O  0.32738196  0.24556240  0.68757472    -0.78500
O262        O  0.26535244  0.31596841  0.69320515    -0.78400
O263        O  0.22381996  0.19301482  0.68144725    -0.78500
C264        C  0.24488897  0.15974541  0.68072280     1.11300
C265        C  0.24527202  0.35106114  0.69464227     1.11100
C266        C  0.14155570  0.22768266  0.68912373     1.11300
C267        C  0.35579362  0.27486683  0.69386968     1.11200
O268        O  0.34975386  0.18800334  0.74051558    -0.78400
O269        O  0.16072055  0.29284707  0.76180001    -0.78500
O270        O  0.21386886  0.15488682  0.76072387    -0.78400
O271        O  0.29441134  0.32757313  0.77805008    -0.78400
O272        O  0.22717894  0.32693547  0.77505730    -0.78500
O273        O  0.27802057  0.17125516  0.78012512    -0.78400
O274        O  0.33776159  0.24655473  0.77691290    -0.78400
O275        O  0.16871958  0.22846287  0.78623480    -0.78500
Co276      Co  0.29698932  0.21004945  0.73500396     1.51500
Co277      Co  0.21006116  0.29133015  0.72696670     1.51700
Co278      Co  0.19937765  0.21186303  0.73486848     1.51600
Co279      Co  0.29764887  0.28059582  0.73670715     1.51500
O280        O  0.24669666  0.24511783  0.75064023    -1.40400
C281        C  0.36148259  0.21474442  0.76756094     1.11200
C282        C  0.14960789  0.26339809  0.78605586     1.11300
C283        C  0.24885933  0.14414069  0.77593739     1.11200
C284        C  0.26030000  0.34263940  0.78885094     1.11200
O285        O  0.77499224  0.15951094  0.29140640    -0.78400
O286        O  0.78140508  0.34207461  0.21701813    -0.78500
O287        O  0.83296827  0.24866920  0.18871415    -0.78500
O288        O  0.83177256  0.25103861  0.32091888    -0.78400
O289        O  0.78113796  0.28419500  0.16152840    -0.78500
O290        O  0.77741264  0.21825780  0.34751682    -0.78500
O291        O  0.83379481  0.31484902  0.25157134    -0.78400
O292        O  0.82928522  0.18432851  0.25741452    -0.78500
C293        C  0.81235846  0.15604855  0.28051033     1.11300
C294        C  0.81916394  0.34337243  0.22759836     1.11100
C295        C  0.81807246  0.27157817  0.15939936     1.11300
C296        C  0.81506099  0.22973599  0.35061032     1.11200
O297        O  0.70223797  0.25602344  0.31768076    -0.78400
O298        O  0.70309478  0.24833365  0.18785291    -0.78500
O299        O  0.75049937  0.15959736  0.22225090    -0.78400
O300        O  0.75650920  0.34371497  0.28523880    -0.78400
O301        O  0.70363245  0.31462582  0.25207473    -0.78500
O302        O  0.69991944  0.19123137  0.25465233    -0.78400
O303        O  0.75591310  0.28943908  0.34460375    -0.78400
O304        O  0.75568493  0.21388190  0.16253578    -0.78500
Co305      Co  0.73933905  0.21047578  0.29815212     1.51500
Co306      Co  0.74244446  0.29289191  0.20943343     1.51700
Co307      Co  0.79212842  0.20632101  0.21244453     1.51600
Co308      Co  0.79439929  0.29507995  0.29596855     1.51500
O309        O  0.76761549  0.25116698  0.25401318    -1.40400
C310        C  0.71796969  0.27925437  0.34593046     1.11200
C311        C  0.71851642  0.22525951  0.15959629     1.11300
C312        C  0.71291646  0.16046757  0.23345939     1.11200
C313        C  0.71885053  0.34463731  0.27387174     1.11200
O314        O  0.31210534  0.68122800  0.24830268    -0.78400
O315        O  0.17697901  0.69525311  0.24665070    -0.78500
O316        O  0.28194457  0.72762511  0.34761741    -0.78500
O317        O  0.20862208  0.75621254  0.16910095    -0.78400
O318        O  0.24190601  0.68115506  0.31487175    -0.78500
O319        O  0.24412060  0.69830328  0.18377143    -0.86300
O320        O  0.16281663  0.75381683  0.21137935    -0.78400
O321        O  0.34146012  0.72691882  0.29158360    -0.78500
C322        C  0.34205322  0.69182069  0.27262368     1.11300
C323        C  0.15233435  0.71652298  0.22279104     1.11100
C324        C  0.26425428  0.69152972  0.34620475     1.11300
C325        C  0.22157854  0.72009658  0.15853360     1.11200
O326        O  0.28623629  0.77413958  0.16917633    -0.78400
O327        O  0.21553628  0.76064540  0.34715891    -0.78500
O328        O  0.32722027  0.81148118  0.26496230    -0.78400
O329        O  0.17452737  0.82372467  0.25109507    -0.78400
O330        O  0.15798433  0.76834825  0.28927829    -0.78500
O331        O  0.34590720  0.75997503  0.22365925    -0.78400
O332        O  0.24581312  0.82695556  0.18548660    -0.78400
O333        O  0.25910935  0.81200237  0.32825603    -0.78500
Co334      Co  0.29230114  0.72877832  0.21168064     1.51500
Co335      Co  0.20409114  0.72691041  0.29523967     1.51700
Co336      Co  0.29823734  0.77006128  0.30401838     1.51600
Co337      Co  0.21559232  0.78651011  0.22272792     1.51500
O338        O  0.25383135  0.75286756  0.25944884    -1.40400
C339        C  0.27087320  0.80971673  0.16053906     1.11200
C340        C  0.23223511  0.79672093  0.35354369     1.11300
C341        C  0.35386079  0.79529815  0.24048280     1.11200
C342        C  0.14868274  0.80411495  0.27436132     1.11200
C343        C  0.10496019  0.81807860  0.28121691    -0.14700
C344        C  0.07427265  0.78844885  0.28782380    -0.29900
H345        H  0.09780360  0.85146651  0.28035269     0.14300
H346        H  0.08189807  0.75524662  0.28571692     0.14900
C347        C  0.81716375  0.07853946  0.27973931    -0.14700
C348        C  0.83284201  0.11618255  0.29326127    -0.29900
H349        H  0.79871350  0.07830569  0.25182127     0.14300
H350        H  0.85223671  0.11716243  0.32075228     0.14900
C351        C  0.83635753  0.22046219  0.39139297    -0.14700
C352        C  0.81447961  0.22066246  0.42769236    -0.29900
H353        H  0.86878761  0.21236670  0.39157942     0.14300
H354        H  0.78317462  0.23196409  0.42638070     0.14900
C355        C  0.23177151  0.80234267  0.43047838    -0.14700
C356        C  0.21998443  0.81801487  0.39280037    -0.29900
H357        H  0.25983147  0.78415990  0.43240057     0.14300
H358        H  0.19226884  0.83677216  0.39105267     0.14900
C359        C  0.24166823  0.07956346  0.68048855    -0.14700
C360        C  0.22454104  0.11746834  0.67079523    -0.29900
H361        H  0.27397191  0.07923701  0.68859205     0.14300
H362        H  0.19217729  0.11780781  0.66198560     0.14900
C363        C  0.06570169  0.23454904  0.68481754    -0.14700
C364        C  0.10185429  0.22514757  0.66569929    -0.29900
H365        H  0.06570310  0.25923141  0.70803851     0.14300
H366        H  0.10076529  0.20048428  0.64238320     0.14900
C367        C  0.97585440  0.86500369  0.37194664    -0.16800
C368        C  0.96349887  0.88203219  0.40249840     0.07300
C369        C  0.94927190  0.89469524  0.44141258     0.09100
C370        C  0.94321419  0.90421382  0.47680698    -0.17700
C371        C  0.83268484  0.00330518  0.41143294    -0.16800
C372        C  0.84714329  0.99747218  0.44521243     0.07300
C373        C  0.87012680  0.98487819  0.47984921     0.09100
C374        C  0.89422333  0.97158034  0.50483097    -0.17700
C375        C  0.89881176  0.12815879  0.51637107    -0.16800
C376        C  0.91609157  0.09817752  0.53077364     0.07300
C377        C  0.92755256  0.06049562  0.55052007     0.09100
C378        C  0.93397187  0.02507952  0.56211996    -0.17700
C379        C  0.99190088  0.99208158  0.62020308    -0.16800
C380        C  0.00401642  0.01784314  0.64462633     0.07300
C381        C  0.01301761  0.05447796  0.66705219     0.09100
C382        C  0.01379678  0.09007844  0.67931588    -0.17700
C383        C  0.03917448  0.92603982  0.58896901    -0.16800
C384        C  0.07335173  0.93648904  0.59974038     0.07300
C385        C  0.10886075  0.95777293  0.61438769     0.09100
C386        C  0.13683603  0.97591543  0.63165415    -0.17700
C387        C  0.00543059  0.87014034  0.52714673    -0.16800
C388        C  0.02806362  0.84448127  0.51283655     0.07300
C389        C  0.06088777  0.82064549  0.49825655     0.09100
C390        C  0.09456202  0.80700739  0.49227470    -0.17700
C391        C  0.70341278  0.27671221  0.42049149    -0.14700
C392        C  0.69485202  0.29358038  0.38269517    -0.29900
H393        H  0.71629444  0.24531915  0.42199805     0.14300
H394        H  0.68153029  0.32481148  0.38066885     0.14900
C395        C  0.25652186  0.43246605  0.69990666    -0.14700
C396        C  0.26869231  0.39254405  0.68959348    -0.29900
H397        H  0.22522887  0.43728331  0.71051430     0.14300
H398        H  0.30045601  0.38873153  0.67998510     0.14900
C399        C  0.38118111  0.66738980  0.27798636    -0.14700
C400        C  0.41784003  0.68289463  0.26249615    -0.29900
H401        H  0.38221550  0.64710084  0.30523690     0.14300
H402        H  0.41675069  0.70221192  0.23461983     0.14900
C403        C  0.71677391  0.42028200  0.28947597    -0.14700
C404        C  0.69549891  0.38363517  0.28330051    -0.29900
H405        H  0.75002553  0.42041259  0.28619736     0.14300
H406        H  0.66198927  0.38282533  0.28397937     0.14900
C407        C  0.25895598  0.68438203  0.42188416    -0.14700
C408        C  0.26701415  0.66556679  0.38494280    -0.29900
H409        H  0.24242524  0.71388385  0.42115191     0.14300
H410        H  0.28183511  0.63508369  0.38387058     0.14900
C411        C  0.39971666  0.27173690  0.67986268    -0.14700
C412        C  0.43085510  0.27821003  0.70807855    -0.29900
H413        H  0.40652102  0.26492188  0.64765815     0.14300
H414        H  0.42267567  0.28222982  0.74044121     0.14900
C415        C  0.45740504  0.56283205  0.54888849    -0.16800
C416        C  0.42323383  0.57271040  0.53873186     0.07300
C417        C  0.38641784  0.58763844  0.52150415     0.09100
C418        C  0.35670761  0.60598407  0.50902751    -0.17700
C419        C  0.48649463  0.50110072  0.60689714    -0.16800
C420        C  0.46156452  0.49117854  0.63270657     0.07300
C421        C  0.42829981  0.48551594  0.65988000     0.09100
C422        C  0.39654087  0.48629156  0.67875670    -0.17700
C423        C  0.49212783  0.66246428  0.39273289    -0.16800
C424        C  0.49479801  0.64702373  0.42669700     0.07300
C425        C  0.50202942  0.62364974  0.46299914     0.09100
C426        C  0.51151236  0.59951225  0.49012671    -0.17700
C427        C  0.57857634  0.54872230  0.46774304    -0.16800
C428        C  0.58882154  0.53901931  0.43353379     0.07300
C429        C  0.60281933  0.52058311  0.39706753     0.09100
C430        C  0.62182447  0.50705605  0.36850421    -0.17700
C431        C  0.68928660  0.41025376  0.49353602    -0.16800
C432        C  0.67148731  0.44232275  0.50040718     0.07300
C433        C  0.64297608  0.47223833  0.51327145     0.09100
C434        C  0.61417620  0.49244241  0.52456146    -0.17700
C435        C  0.53757108  0.34634139  0.62592671    -0.16800
C436        C  0.54722000  0.37803406  0.60753777     0.07300
C437        C  0.55565777  0.41916659  0.59308765     0.09100
C438        C  0.55738737  0.45556145  0.58239696    -0.17700
C439        C  0.82517791  0.26599396  0.08329694    -0.14700
C440        C  0.83999761  0.28217945  0.11969980    -0.29900
H441        H  0.80745082  0.23674518  0.08503488     0.14300
H442        H  0.85846999  0.31107146  0.11908867     0.14900
C443        C  0.07573722  0.25535642  0.79637138    -0.14700
C444        C  0.11215708  0.27079638  0.81045015    -0.29900
H445        H  0.07523861  0.22665127  0.77801059     0.14300
H446        H  0.11214198  0.30010366  0.82786032     0.14900
C447        C  0.82676390  0.41987200  0.22106258    -0.14700
C448        C  0.84284017  0.38138679  0.21340289    -0.29900
H449        H  0.80409910  0.42205648  0.24555929     0.14300
H450        H  0.86642220  0.37768777  0.18990116     0.14900
C451        C  0.10973530  0.70112861  0.20911540    -0.14700
C452        C  0.07795568  0.72913982  0.20308879    -0.29900
H453        H  0.10420292  0.66754483  0.20466122     0.14300
H454        H  0.08392456  0.76219320  0.20973565     0.14900
C455        C  0.25593999  0.38050775  0.81552989    -0.14700
C456        C  0.26514620  0.41982117  0.80091085    -0.29900
H457        H  0.23122865  0.37778182  0.83810755     0.14300
H458        H  0.28972446  0.42368258  0.77842423     0.14900
C459        C  0.20549836  0.73741900  0.08486070    -0.14700
C460        C  0.21217057  0.70722779  0.11479594    -0.29900
H461        H  0.20764073  0.77058266  0.09306921     0.14300
H462        H  0.21230941  0.67399778  0.10666238     0.14900
C463        C  0.12726798  0.47225051  0.83077426    -0.16800
C464        C  0.09585823  0.48310365  0.84650615     0.07300
C465        C  0.06434578  0.50571362  0.86528623     0.09100
C466        C  0.03703099  0.52423674  0.88181801    -0.17700
C467        C  0.13202680  0.64992828  0.98575916    -0.16800
C468        C  0.10630635  0.62516220  0.97439774     0.07300
C469        C  0.07290815  0.60228119  0.95831799     0.09100
C470        C  0.04192906  0.58579212  0.94574164    -0.17700
C471        C  0.97376172  0.59882891  0.99766401    -0.16800
C472        C  0.97989265  0.61938679  0.02828774     0.07300
C473        C  0.98801027  0.64225462  0.06458206     0.09100
C474        C  0.99354081  0.66242425  0.09554027    -0.17700
C475        C  0.85949361  0.49079431  0.08893928    -0.16800
C476        C  0.87250302  0.50380165  0.05654595     0.07300
C477        C  0.88916492  0.52515341  0.02229001     0.09100
C478        C  0.90737808  0.53966177  0.99316189    -0.17700
C479        C  0.85548196  0.38916800  0.99244340    -0.16800
C480        C  0.86941672  0.41917403  0.97402002     0.07300
C481        C  0.88622644  0.45088182  0.94822509     0.09100
C482        C  0.90448132  0.47945293  0.93141312    -0.17700
C483        C  0.96389198  0.48166030  0.86498012    -0.16800
C484        C  0.97527356  0.45579278  0.84075353     0.07300
C485        C  0.99487094  0.42429130  0.81823768     0.09100
C486        C  0.00739500  0.39202132  0.80422323    -0.17700
C487        C  0.28713321  0.79626629  0.08733128    -0.14700
C488        C  0.27746191  0.82498848  0.11717098    -0.29900
H489        H  0.29061184  0.76324262  0.09584015     0.14300
H490        H  0.27130489  0.85762868  0.10902462     0.14900
C491        C  0.43175784  0.79446398  0.23252613    -0.14700
C492        C  0.39496107  0.81563819  0.22956292    -0.29900
H493        H  0.43371257  0.76799031  0.25372049     0.14300
H494        H  0.39367102  0.84418568  0.21079856     0.14900
C495        C  0.43336436  0.19308066  0.76313340    -0.14700
C496        C  0.40275270  0.20928269  0.78638617    -0.29900
H497        H  0.42761427  0.18605235  0.73060647     0.14300
H498        H  0.40860284  0.21989799  0.81788329     0.14900
C499        C  0.29252446  0.08234473  0.76423469    -0.14700
C500        C  0.25881749  0.09847462  0.78310853    -0.29900
H501        H  0.31140581  0.10376788  0.74563355     0.14300
H502        H  0.23886163  0.07847848  0.80203875     0.14900
C503        C  0.71465303  0.21501814  0.08374024    -0.14700
C504        C  0.69596223  0.21143850  0.12150918    -0.29900
H505        H  0.73976072  0.23759340  0.08018910     0.14300
H506        H  0.66892138  0.19117647  0.12541104     0.14900
C507        C  0.70508195  0.08499847  0.21939623    -0.14700
C508        C  0.68673387  0.12244559  0.22587369    -0.29900
H509        H  0.73826410  0.08352430  0.21949608     0.14300
H510        H  0.65347774  0.12434626  0.22817954     0.14900
C511        C  0.40151648  0.01371018  0.83449644    -0.16800
C512        C  0.41887123  0.02417398  0.86560221     0.07300
C513        C  0.42899837  0.03817570  0.90532320     0.09100
C514        C  0.43428143  0.04509387  0.94138241    -0.17700
C515        C  0.38881867  0.98790076  0.99200299    -0.16800
C516        C  0.36120927  0.96470303  0.98143899     0.07300
C517        C  0.33384933  0.93064238  0.97564786     0.09100
C518        C  0.31700345  0.89679625  0.97805751    -0.17700
C519        C  0.54006529  0.05845997  0.04424812    -0.16800
C520        C  0.57683991  0.06236442  0.04420009     0.07300
C521        C  0.61884857  0.07069914  0.03851388     0.09100
C522        C  0.65141354  0.08742390  0.03160684    -0.17700
C523        C  0.52365453  0.15504697  0.87694317    -0.16800
C524        C  0.52204411  0.14059684  0.91142854     0.07300
C525        C  0.51306531  0.11788503  0.94787030     0.09100
C526        C  0.49982601  0.09440047  0.97417461    -0.17700
C527        C  0.43684609  0.95298821  0.05838840    -0.16800
C528        C  0.44486837  0.91744852  0.06844479     0.07300
C529        C  0.46352872  0.88064502  0.08352543     0.09100
C530        C  0.47958816  0.85341671  0.10372236    -0.17700
C531        C  0.49675267  0.00461400  0.09906874    -0.16800
C532        C  0.51966881  0.99926541  0.12776174     0.07300
C533        C  0.55333325  0.99953666  0.15493867     0.09100
C534        C  0.58565475  0.00231412  0.17285999    -0.17700
C535        C  0.79661502  0.92232732  0.28896365    -0.14700
C536        C  0.78652692  0.88528864  0.30883350    -0.29900
H537        H  0.79977889  0.92222411  0.25539896     0.14300
H538        H  0.78038578  0.88471827  0.34192282     0.14900
C539        C  0.70272011  0.89510718  0.19931693    -0.14700
C540        C  0.70618649  0.93028388  0.22235557    -0.29900
H541        H  0.68971336  0.89606464  0.16820923     0.14300
H542        H  0.72099165  0.92900676  0.25257391     0.14900
C543        C  0.88665499  0.75265358  0.16884187    -0.14700
C544        C  0.92355257  0.75575715  0.19017247    -0.29900
H545        H  0.88654641  0.73905738  0.13800082     0.14300
H546        H  0.92339229  0.76999630  0.22061667     0.14900
C547        C  0.88690167  0.75058051  0.31411530    -0.14700
C548        C  0.92525468  0.74295952  0.29897733    -0.29900
H549        H  0.88305092  0.77615714  0.33600822     0.14300
H550        H  0.92911972  0.71873652  0.27563890     0.14900
C551        C  0.72741511  0.61275944  0.31184200    -0.14700
C552        C  0.72984849  0.57525793  0.29180076    -0.29900
H553        H  0.71714346  0.61442252  0.34380780     0.14300
H554        H  0.74148233  0.57467858  0.26037827     0.14900
C555        C  0.78715857  0.60341352  0.17290852    -0.14700
C556        C  0.80148328  0.57213367  0.19810895    -0.29900
H557        H  0.78249875  0.59783595  0.13997617     0.14300
H558        H  0.80434281  0.57737937  0.23124611     0.14900
C559        C  0.61250476  0.76783479  0.16201898    -0.14700
C560        C  0.58185839  0.77870950  0.18957190    -0.29900
H561        H  0.60515470  0.76360751  0.12939866     0.14300
H562        H  0.59002058  0.77996087  0.22221293     0.14900
C563        C  0.60608396  0.72528695  0.29607311    -0.14700
C564        C  0.57236944  0.71045876  0.27403314    -0.29900
H565        H  0.60264244  0.73321098  0.32859587     0.14300
H566        H  0.57565055  0.70497448  0.24099558     0.14900
C567        C  0.89104109  0.29377256  0.77039144    -0.14700
C568        C  0.92457272  0.26986637  0.77871686    -0.29900
H569        H  0.89436674  0.32716397  0.76294993     0.14300
H570        H  0.92107416  0.23605266  0.78389073     0.14900
C571        C  0.88426517  0.17078024  0.71536587    -0.14700
C572        C  0.91421562  0.19927132  0.70356929    -0.29900
H573        H  0.89235846  0.13799875  0.72054504     0.14300
H574        H  0.90658080  0.23243634  0.70075607     0.14900
C575        C  0.72638488  0.17611444  0.93410732    -0.14700
C576        C  0.73389156  0.14900963  0.90213544    -0.29900
H577        H  0.72478437  0.20964567  0.92726272     0.14300
H578        H  0.73794915  0.11551420  0.90795627     0.14900
C579        C  0.77487515  0.28988658  0.89720715    -0.14700
C580        C  0.78890790  0.26893246  0.93181744    -0.29900
H581        H  0.76930717  0.32359963  0.89828406     0.14300
H582        H  0.79264180  0.23495015  0.93076190     0.14900
C583        C  0.61791053  0.15484173  0.75091408    -0.14700
C584        C  0.58226609  0.17257839  0.73890512    -0.29900
H585        H  0.61663282  0.13143758  0.77574993     0.14300
H586        H  0.58240371  0.19600311  0.71414552     0.14900
C587        C  0.61992291  0.28953540  0.74496234    -0.14700
C588        C  0.58020494  0.27670535  0.75229817    -0.29900
H589        H  0.62611560  0.30838171  0.71735429     0.14300
H590        H  0.57329174  0.25721525  0.77927595     0.14900
C591        C  0.73333624  0.30705147  0.60772671    -0.14700
C592        C  0.71791703  0.28581906  0.57442810    -0.29900
H593        H  0.74569781  0.33891174  0.60384439     0.14300
H594        H  0.70885879  0.25278048  0.57780622     0.14900
C595        C  0.78817062  0.18040279  0.61456743    -0.14700
C596        C  0.79305813  0.20737038  0.58163381    -0.29900
H597        H  0.79476063  0.14706147  0.61126912     0.14300
H598        H  0.78519470  0.24020351  0.58521468     0.14900
C599        C  0.32511428  0.75407731  0.90613800    -0.14700
C600        C  0.30218954  0.74884383  0.94079566    -0.29900
H601        H  0.35035398  0.77708739  0.90733206     0.14300
H602        H  0.27740483  0.72541149  0.94154488     0.14900
C603        C  0.20405154  0.77279603  0.93129710    -0.14700
C604        C  0.19064995  0.76288726  0.89208884    -0.29900
H605        H  0.22854668  0.79612728  0.93513642     0.14300
H606        H  0.16547436  0.74008173  0.88897363     0.14900
C607        C  0.22277313  0.93609065  0.74726255    -0.14700
C608        C  0.20637497  0.89615139  0.74539772    -0.29900
H609        H  0.24833426  0.94248616  0.76816508     0.14300
H610        H  0.18047731  0.89044766  0.72457176     0.14900
C611        C  0.34421605  0.89365286  0.74398669    -0.14700
C612        C  0.32348866  0.92938933  0.73371619    -0.29900
H613        H  0.37095572  0.89662348  0.76424528     0.14300
H614        H  0.29663300  0.92675825  0.71371709     0.14900
C615        C  0.29623720  0.71729904  0.60571008    -0.14700
C616        C  0.26980428  0.70655787  0.57447452    -0.29900
H617        H  0.32930688  0.71777869  0.60053213     0.14300
H618        H  0.23679487  0.70831511  0.57939045     0.14900
C619        C  0.18815904  0.77862885  0.61918861    -0.14700
C620        C  0.21042048  0.78957083  0.58446967    -0.29900
H621        H  0.15681205  0.76640393  0.61652904     0.14300
H622        H  0.24267695  0.79865501  0.58817200     0.14900
C623        C  0.32197145  0.61597706  0.74326209    -0.14700
C624        C  0.29582090  0.58700486  0.72484871    -0.29900
H625        H  0.35223900  0.60637944  0.75389236     0.14300
H626        H  0.26508807  0.59699832  0.71622514     0.14900
C627        C  0.20231613  0.60294868  0.77592721    -0.14700
C628        C  0.22909916  0.57362902  0.79088339    -0.29900
H629        H  0.17277502  0.59330684  0.76279124     0.14300
H630        H  0.25932080  0.58387169  0.80186661     0.14900
loop_ 
_geom_bond_atom_site_label_1 
_geom_bond_atom_site_label_2 
_geom_bond_distance 
_geom_bond_site_symmetry_2 
_ccdc_geom_bond_type 
O1            C9   1.263       .  A
O1          Co21   2.031       .  S
O2           C10   1.277       .  A
O2          Co22   2.047       .  S
O3           C11   1.275       .  A
O3          Co23   1.889       .  S
O4           C12   1.265       .  A
O4          Co24   1.980       .  S
O5           C11   1.316       .  A
O5          Co22   2.123       .  S
O6           C12   1.277       .  A
O6          Co21   2.046       .  S
O7           C10   1.267       .  A
O7          Co24   1.977       .  S
O8            C9   1.252       .  A
O8          Co23   1.987       .  S
C9          C623   1.508       .  S
C10         C611   1.499       .  S
C11         C615   1.486       .  S
C12         C599   1.490       .  S
O13          C26   1.275       .  A
O13         Co21   1.993       .  S
O14          C27   1.261       .  A
O14         Co22   1.875       .  S
O15          C28   1.323       .  A
O15         Co23   2.157       .  S
O16          C29   1.265       .  A
O16         Co24   2.042       .  S
O17          C29   1.260       .  A
O17         Co22   1.992       .  S
O18          C28   1.279       .  A
O18         Co21   1.861       .  S
O19          C26   1.275       .  A
O19         Co24   2.047       .  S
O20          C27   1.317       .  A
O20         Co23   2.122       .  S
Co21         O25   1.953       .  S
Co22         O25   2.006       .  S
Co23         O25   2.095       .  S
Co24         O25   2.080       .  S
C26         C604   1.507       .  S
C27         C619   1.499       .  S
C28         C627   1.487       .  S
C29         C608   1.501       .  S
O30          C38   1.265       .  A
O30         Co50   2.027       .  S
O31          C39   1.298       .  A
O31         Co51   2.044       .  S
O32          C40   1.310       .  A
O32         Co52   2.107       .  S
O33          C41   1.258       .  A
O33         Co53   1.981       .  S
O34          C40   1.291       .  A
O34         Co51   1.994       .  S
O35          C41   1.264       .  A
O35         Co50   2.006       .  S
O36          C39   1.275       .  A
O36         Co53   1.974       .  S
O37          C38   1.274       .  A
O37         Co52   2.021       .  S
C38         C595   1.494       .  S
C39         C576   1.502       .  S
C40         C571   1.497       .  S
C41         C583   1.476       .  S
O42          C55   1.301       .  A
O42         Co50   2.070       .  S
O43          C56   1.264       .  A
O43         Co51   1.980       .  S
O44          C57   1.300       .  A
O44         Co52   2.019       .  S
O45          C58   1.287       .  A
O45         Co53   2.032       .  S
O46          C58   1.264       .  A
O46         Co51   1.979       .  S
O47          C57   1.288       .  A
O47         Co50   1.970       .  S
O48          C55   1.286       .  A
O48         Co53   1.948       .  S
O49          C56   1.272       .  A
O49         Co52   1.999       .  S
Co50         O54   2.085       .  S
Co51         O54   2.029       .  S
Co52         O54   2.000       .  S
Co53         O54   1.914       .  S
C55         C587   1.501       .  S
C56         C567   1.473       .  S
C57         C591   1.486       .  S
C58         C579   1.499       .  S
O59          C67   1.280       .  A
O59         Co79   2.024       .  S
O60          C68   1.274       .  A
O60         Co80   2.016       .  S
O61          C69   1.282       .  A
O61         Co81   1.877       .  S
O62          C70   1.275       .  A
O62         Co82   1.985       .  S
O63          C69   1.311       .  A
O63         Co80   2.096       .  S
O64          C70   1.290       .  A
O64         Co79   2.024       .  S
O65          C68   1.266       .  A
O65         Co82   2.042       .  S
O66          C67   1.260       .  A
O66         Co81   2.012       .  S
C67         C559   1.526       .  S
C68         C543   1.514       .  S
C69         C539   1.466       .  S
C70         C555   1.487       .  S
O71          C84   1.267       .  A
O71         Co79   1.976       .  S
O72          C85   1.268       .  A
O72         Co80   1.872       .  S
O73          C86   1.295       .  A
O73         Co81   2.038       .  S
O74          C87   1.280       .  A
O74         Co82   1.901       .  S
O75          C87   1.308       .  A
O75         Co80   2.133       .  S
O76          C86   1.277       .  A
O76         Co79   2.022       .  S
O77          C84   1.277       .  A
O77         Co82   2.003       .  S
O78          C85   1.319       .  A
O78         Co81   2.125       .  S
Co79         O83   2.054       .  S
Co80         O83   2.032       .  S
Co81         O83   2.033       .  S
Co82         O83   1.934       .  S
C84         C551   1.477       .  S
C85         C536   1.496       .  S
C86         C563   1.514       .  S
C87         C547   1.484       .  S
C88          C89   1.401   1_545  A
C88          C93   1.401       .  A
C88         C531   1.440       .  S
C89          C90   1.402   1_565  A
C89         C527   1.442       .  S
C90          C91   1.404   1_554  A
C90         C515   1.442   1_544  S
C91          C92   1.402       .  A
C91         C514   1.434       .  S
C92          C93   1.398   1_556  A
C92         C526   1.446       .  S
C93         C519   1.438       .  S
C94         C507   1.472       .  S
C94          N95   1.357       .  A
C94          N99   1.362       .  A
N95          C96   1.357       .  A
C96         C534   1.421       .  S
C96          N97   1.352   1_545  A
N97          C98   1.352       .  A
C98         C540   1.467       .  S
C98          N99   1.359   1_565  A
C100        C503   1.495       .  S
C100        N101   1.372       .  A
C100        N105   1.349       .  A
N101        C102   1.376   1_554  A
C102        C575   1.494       .  S
C102        N103   1.356       .  A
N103        C104   1.357   1_556  A
C104        C522   1.417       .  S
C104        N105   1.352       .  A
C106        C499   1.489       .  S
C106        N107   1.377       .  A
C106        N111   1.344       .  A
N107        C108   1.380   1_545  A
C108        C612   1.510       .  S
C108        N109   1.359       .  A
N109        C110   1.353   1_565  A
C110        C511   1.413       .  S
C110        N111   1.346       .  A
C112        C584   1.488       .  S
C112        N113   1.360       .  A
C112        N117   1.363       .  A
N113        C114   1.354       .  A
C114        C523   1.427       .  S
C114        N115   1.353       .  A
N115        C116   1.354       .  A
C116        C495   1.475       .  S
C116        N117   1.366       .  A
C118        C491   1.518       .  S
C118        N119   1.383       .  A
C118        N123   1.345       .  A
N119        C120   1.388       .  A
C120        C560   1.522       .  S
C120        N121   1.363       .  A
N121        C122   1.363       .  A
C122        C530   1.424       .  S
C122        N123   1.350       .  A
C124        C487   1.480       .  S
C124        N125   1.373       .  A
C124        N129   1.351       .  A
N125        C126   1.368   1_554  A
C126        C600   1.496       .  S
C126        N127   1.358       .  A
N127        C128   1.353       .  A
C128        C518   1.422       .  S
C128        N129   1.351   1_556  A
C130        C131   1.400       .  A
C130        C135   1.408       .  A
C130        C482   1.443       .  S
C131        C132   1.404   1_655  A
C131        C483   1.439       .  S
C132        C133   1.399       .  A
C132        C466   1.442       .  S
C133        C134   1.403   1_455  A
C133        C470   1.436       .  S
C134        C135   1.402       .  A
C134        C471   1.443       .  S
C135        C478   1.439       .  S
C136        C603   1.514       .  S
C136        N137   1.352       .  A
C136        N141   1.378   1_556  A
N137        C138   1.350       .  A
C138        C467   1.414       .  S
C138        N139   1.350   1_556  A
N139        C140   1.352       .  A
C140        C459   1.492       .  S
C140        N141   1.382       .  A
C142        C628   1.487       .  S
C142        N143   1.375       .  A
C142        N147   1.344       .  A
N143        C144   1.375       .  A
C144        C456   1.503       .  S
C144        N145   1.362       .  A
N145        C146   1.355       .  A
C146        C463   1.416       .  S
C146        N147   1.346       .  A
C148        C544   1.523       .  S
C148        N149   1.352       .  A
C148        N153   1.385   1_655  A
N149        C150   1.354       .  A
C150        C474   1.423       .  S
C150        N151   1.358   1_655  A
N151        C152   1.356       .  A
C152        C452   1.516       .  S
C152        N153   1.387       .  A
C154        C556   1.479       .  S
C154        N155   1.366       .  A
C154        N159   1.345       .  A
N155        C156   1.370       .  A
C156        C447   1.489       .  S
C156        N157   1.362       .  A
N157        C158   1.360       .  A
C158        C475   1.417       .  S
C158        N159   1.349       .  A
C160        C443   1.488       .  S
C160        N161   1.367       .  A
C160        N165   1.364       .  A
N161        C162   1.366   1_455  A
C162        C568   1.472       .  S
C162        N163   1.345       .  A
N163        C164   1.343   1_655  A
C164        C486   1.417       .  S
C164        N165   1.356       .  A
C166        C439   1.510       .  S
C166        N167   1.365       .  A
C166        N171   1.377       .  A
N167        C168   1.364       .  A
C168        C479   1.423   1_554  S
C168        N169   1.348   1_554  A
N169        C170   1.344       .  A
C170        C580   1.492       .  S
C170        N171   1.374   1_556  A
C172        C173   1.403       .  A
C172        C177   1.402       .  A
C172        C434   1.443       .  S
C173        C174   1.406       .  A
C173        C438   1.443       .  S
C174        C175   1.406       .  A
C174        C419   1.442       .  S
C175        C176   1.402       .  A
C175        C415   1.441       .  S
C176        C177   1.399       .  A
C176        C426   1.445       .  S
C177        C427   1.436       .  S
C178        C412   1.498       .  S
C178        N179   1.380       .  A
C178        N183   1.357       .  A
N179        C180   1.375       .  A
C180        C588   1.512       .  S
C180        N181   1.353       .  A
N181        C182   1.351       .  A
C182        C435   1.425       .  S
C182        N183   1.357       .  A
C184        C616   1.484       .  S
C184        N185   1.368       .  A
C184        N189   1.347       .  A
N185        C186   1.374       .  A
C186        C407   1.495       .  S
C186        N187   1.362       .  A
N187        C188   1.360       .  A
C188        C418   1.423       .  S
C188        N189   1.349       .  A
C190        C552   1.472       .  S
C190        N191   1.345       .  A
C190        N195   1.362       .  A
N191        C192   1.349       .  A
C192        C430   1.415       .  S
C192        N193   1.360       .  A
N193        C194   1.360       .  A
C194        C403   1.478       .  S
C194        N195   1.367       .  A
C196        C564   1.512       .  S
C196        N197   1.354       .  A
C196        N201   1.384       .  A
N197        C198   1.355       .  A
C198        C423   1.425       .  S
C198        N199   1.355       .  A
N199        C200   1.356       .  A
C200        C400   1.518       .  S
C200        N201   1.383       .  A
C202        C624   1.510       .  S
C202        N203   1.385       .  A
C202        N207   1.353       .  A
N203        C204   1.382       .  A
C204        C395   1.525       .  S
C204        N205   1.357       .  A
N205        C206   1.354       .  A
C206        C422   1.425       .  S
C206        N207   1.354       .  A
C208        C391   1.493       .  S
C208        N209   1.371       .  A
C208        N213   1.359       .  A
N209        C210   1.370       .  A
C210        C592   1.488       .  S
C210        N211   1.352       .  A
N211        C212   1.351       .  A
C212        C431   1.422       .  S
C212        N213   1.355       .  A
C214        C215   1.405       .  A
C214        C219   1.404       .  A
C214        C383   1.444   1_655  S
C215        C216   1.406       .  A
C215        C387   1.442   1_655  S
C216        C217   1.402       .  A
C216        C370   1.441       .  S
C217        C218   1.401       .  A
C217        C374   1.443       .  S
C218        C219   1.401       .  A
C218        C378   1.443   1_565  S
C219        C379   1.441       .  S
C220        C572   1.502       .  S
C220        N221   1.353       .  A
C220        N225   1.379       .  A
N221        C222   1.351   1_655  A
C222        C382   1.420       .  S
C222        N223   1.352       .  A
N223        C224   1.357       .  A
C224        C363   1.503       .  S
C224        N225   1.378   1_455  A
C226        C359   1.511       .  S
C226        N227   1.363       .  A
C226        N231   1.379       .  A
N227        C228   1.363   1_545  A
C228        C386   1.427       .  S
C228        N229   1.350       .  A
N229        C230   1.348       .  A
C230        C607   1.511       .  S
C230        N231   1.374   1_565  A
C232        C355   1.505       .  S
C232        N233   1.359       .  A
C232        N237   1.376       .  A
N233        C234   1.357       .  A
C234        C390   1.422       .  S
C234        N235   1.353       .  A
N235        C236   1.350       .  A
C236        C620   1.496       .  S
C236        N237   1.377       .  A
C238        C596   1.495       .  S
C238        N239   1.374       .  A
C238        N243   1.345       .  A
N239        C240   1.380       .  A
C240        C352   1.507       .  S
C240        N241   1.363       .  A
N241        C242   1.362       .  A
C242        C375   1.422       .  S
C242        N243   1.349       .  A
C244        C347   1.497       .  S
C244        N245   1.357       .  A
C244        N249   1.372       .  A
N245        C246   1.357       .  A
C246        C371   1.422       .  S
C246        N247   1.355   1_545  A
N247        C248   1.352       .  A
C248        C535   1.492       .  S
C248        N249   1.372   1_565  A
C250        C344   1.499       .  S
C250        N251   1.380   1_455  A
C250        N255   1.359       .  A
N251        C252   1.374       .  A
C252        C548   1.503       .  S
C252        N253   1.348       .  A
N253        C254   1.347       .  A
C254        C367   1.421       .  S
C254        N255   1.358   1_655  A
O256        C264   1.262       .  A
O256       Co276   2.025       .  S
O257        C265   1.286       .  A
O257       Co277   1.975       .  S
O258        C266   1.276       .  A
O258       Co278   1.855       .  S
O259        C267   1.262       .  A
O259       Co279   1.884       .  S
O260        C266   1.327       .  A
O260       Co277   2.154       .  S
O261        C267   1.313       .  A
O261       Co276   2.128       .  S
O262        C265   1.297       .  A
O262       Co279   2.078       .  S
O263        C264   1.264       .  A
O263       Co278   1.996       .  S
C264        C360   1.518       .  S
C265        C396   1.515       .  S
C266        C364   1.491       .  S
C267        C411   1.501       .  S
O268        C281   1.271       .  A
O268       Co276   1.865       .  S
O269        C282   1.262       .  A
O269       Co277   1.960       .  S
O270        C283   1.284       .  A
O270       Co278   2.042       .  S
O271        C284   1.262       .  A
O271       Co279   2.006       .  S
O272        C284   1.257       .  A
O272       Co277   1.993       .  S
O273        C283   1.274       .  A
O273       Co276   1.991       .  S
O274        C281   1.313       .  A
O274       Co279   2.131       .  S
O275        C282   1.276       .  A
O275       Co278   2.011       .  S
Co276       O280   2.053       .  S
Co277       O280   2.041       .  S
Co278       O280   1.915       .  S
Co279       O280   2.033       .  S
C281        C496   1.479       .  S
C282        C444   1.472       .  S
C283        C500   1.502       .  S
C284        C455   1.488       .  S
O285        C293   1.269       .  A
O285       Co305   2.012       .  S
O286        C294   1.270       .  A
O286       Co306   2.005       .  S
O287        C295   1.284       .  A
O287       Co307   2.019       .  S
O288        C296   1.284       .  A
O288       Co308   2.022       .  S
O289        C295   1.270       .  A
O289       Co306   2.016       .  S
O290        C296   1.272       .  A
O290       Co305   2.023       .  S
O291        C294   1.280       .  A
O291       Co308   2.013       .  S
O292        C293   1.279       .  A
O292       Co307   2.008       .  S
C293        C348   1.490       .  S
C294        C448   1.488       .  S
C295        C440   1.500       .  S
C296        C351   1.511       .  S
O297        C310   1.273       .  A
O297       Co305   1.998       .  S
O298        C311   1.279       .  A
O298       Co306   2.012       .  S
O299        C312   1.273       .  A
O299       Co307   2.011       .  S
O300        C313   1.274       .  A
O300       Co308   2.011       .  S
O301        C313   1.276       .  A
O301       Co306   1.999       .  S
O302        C312   1.271       .  A
O302       Co305   1.984       .  S
O303        C310   1.268       .  A
O303       Co308   2.013       .  S
O304        C311   1.266       .  A
O304       Co307   2.006       .  S
Co305       O309   2.115       .  S
Co306       O309   2.115       .  S
Co307       O309   2.123       .  S
Co308       O309   2.118       .  S
C310        C392   1.482       .  S
C311        C504   1.490       .  S
C312        C508   1.483       .  S
C313        C404   1.491       .  S
O314        C322   1.287       .  A
O314       Co334   2.018       .  S
O315        C323   1.299       .  A
O315       Co335   2.051       .  S
O316        C324   1.271       .  A
O316       Co336   2.005       .  S
O317        C325   1.272       .  A
O317       Co337   1.991       .  S
O318        C324   1.281       .  A
O318       Co335   2.009       .  S
O319        C325   1.294       .  A
O319       Co334   2.032       .  S
O320        C323   1.276       .  A
O320       Co337   2.019       .  S
O321        C322   1.271       .  A
O321       Co336   2.015       .  S
C322        C399   1.505       .  S
C323        C451   1.522       .  S
C324        C408   1.493       .  S
C325        C460   1.498       .  S
O326        C339   1.267       .  A
O326       Co334   1.989       .  S
O327        C340   1.273       .  A
O327       Co335   2.019       .  S
O328        C341   1.286       .  A
O328       Co336   2.034       .  S
O329        C342   1.278       .  A
O329       Co337   2.017       .  S
O330        C342   1.267       .  A
O330       Co335   2.012       .  S
O331        C341   1.267       .  A
O331       Co334   2.022       .  S
O332        C339   1.276       .  A
O332       Co337   1.998       .  S
O333        C340   1.283       .  A
O333       Co336   2.013       .  S
Co334       O338   2.137       .  S
Co335       O338   2.138       .  S
Co336       O338   2.097       .  S
Co337       O338   2.021       .  S
C339        C488   1.491       .  S
C340        C356   1.495       .  S
C341        C492   1.513       .  S
C342        C343   1.509       .  S
C343        C344   1.373       .  D
C343        H345   1.085       .  S
C344        H346   1.086       .  S
C347        C348   1.361       .  D
C347        H349   1.078       .  S
C348        H350   1.084       .  S
C351        C352   1.371       .  D
C351        H353   1.086       .  S
C352        H354   1.082       .  S
C355        C356   1.364       .  D
C355        H357   1.085       .  S
C356        H358   1.086       .  S
C359        C360   1.364       .  D
C359        H361   1.079       .  S
C360        H362   1.086       .  S
C363        C364   1.364       .  D
C363        H365   1.085       .  S
C364        H366   1.086       .  S
C367        C368   1.198       .  T
C368        C369   1.401       .  S
C369        C370   1.199       .  T
C371        C372   1.197   1_545  T
C372        C373   1.399       .  S
C373        C374   1.198       .  T
C375        C376   1.199       .  T
C376        C377   1.403       .  S
C377        C378   1.200       .  T
C379        C380   1.197   1_665  T
C380        C381   1.396       .  S
C381        C382   1.196       .  T
C383        C384   1.202       .  T
C384        C385   1.406       .  S
C385        C386   1.202       .  T
C387        C388   1.198       .  T
C388        C389   1.398       .  S
C389        C390   1.197       .  T
C391        C392   1.356       .  D
C391        H393   1.084       .  S
C392        H394   1.086       .  S
C395        C396   1.372       .  D
C395        H397   1.085       .  S
C396        H398   1.085       .  S
C399        C400   1.374       .  D
C399        H401   1.085       .  S
C400        H402   1.084       .  S
C403        C404   1.355       .  D
C403        H405   1.084       .  S
C404        H406   1.087       .  S
C407        C408   1.362       .  D
C407        H409   1.084       .  S
C408        H410   1.085       .  S
C411        C412   1.369       .  D
C411        H413   1.085       .  S
C412        H414   1.086       .  S
C415        C416   1.199       .  T
C416        C417   1.402       .  S
C417        C418   1.199       .  T
C419        C420   1.199       .  T
C420        C421   1.401       .  S
C421        C422   1.199       .  T
C423        C424   1.199       .  T
C424        C425   1.401       .  S
C425        C426   1.200       .  T
C427        C428   1.196       .  T
C428        C429   1.395       .  S
C429        C430   1.195       .  T
C431        C432   1.197       .  T
C432        C433   1.399       .  S
C433        C434   1.199       .  T
C435        C436   1.200       .  T
C436        C437   1.403       .  S
C437        C438   1.201       .  T
C439        C440   1.365       .  D
C439        H441   1.083       .  S
C440        H442   1.085       .  S
C443        C444   1.349       .  D
C443        H445   1.087       .  S
C444        H446   1.087       .  S
C447        C448   1.356       .  D
C447        H449   1.084       .  S
C448        H450   1.087       .  S
C451        C452   1.382       .  D
C451        H453   1.085       .  S
C452        H454   1.083       .  S
C455        C456   1.357       .  D
C455        H457   1.087       .  S
C456        H458   1.084       .  S
C459        C460   1.372       .  D
C459        H461   1.085       .  S
C460        H462   1.085       .  S
C463        C464   1.196       .  T
C464        C465   1.398       .  S
C465        C466   1.198       .  T
C467        C468   1.193       .  T
C468        C469   1.393       .  S
C469        C470   1.195       .  T
C471        C472   1.199   1_556  T
C472        C473   1.400       .  S
C473        C474   1.198       .  T
C475        C476   1.196       .  T
C476        C477   1.397       .  S
C477        C478   1.197   1_554  T
C479        C480   1.200       .  T
C480        C481   1.404       .  S
C481        C482   1.201       .  T
C483        C484   1.198       .  T
C484        C485   1.398       .  S
C485        C486   1.196   1_655  T
C487        C488   1.368       .  D
C487        H489   1.086       .  S
C488        H490   1.086       .  S
C491        C492   1.380       .  D
C491        H493   1.080       .  S
C492        H494   1.085       .  S
C495        C496   1.355       .  D
C495        H497   1.087       .  S
C496        H498   1.086       .  S
C499        C500   1.361       .  D
C499        H501   1.086       .  S
C500        H502   1.085       .  S
C503        C504   1.365       .  D
C503        H505   1.081       .  S
C504        H506   1.086       .  S
C507        C508   1.352       .  D
C507        H509   1.078       .  S
C508        H510   1.084       .  S
C511        C512   1.193       .  T
C512        C513   1.393       .  S
C513        C514   1.194       .  T
C515        C516   1.198       .  T
C516        C517   1.398       .  S
C517        C518   1.197       .  T
C519        C520   1.197       .  T
C520        C521   1.396       .  S
C521        C522   1.195       .  T
C523        C524   1.200       .  T
C524        C525   1.402       .  S
C525        C526   1.200       .  T
C527        C528   1.201       .  T
C528        C529   1.404       .  S
C529        C530   1.201       .  T
C531        C532   1.196   1_545  T
C532        C533   1.396       .  S
C533        C534   1.197   1_565  T
C535        C536   1.368       .  D
C535        H537   1.087       .  S
C536        H538   1.085       .  S
C539        C540   1.344       .  D
C539        H541   1.086       .  S
C540        H542   1.084       .  S
C543        C544   1.379       .  D
C543        H545   1.085       .  S
C544        H546   1.082       .  S
C547        C548   1.363       .  D
C547        H549   1.086       .  S
C548        H550   1.086       .  S
C551        C552   1.358       .  D
C551        H553   1.086       .  S
C552        H554   1.082       .  S
C555        C556   1.362       .  D
C555        H557   1.086       .  S
C556        H558   1.085       .  S
C559        C560   1.384       .  D
C559        H561   1.085       .  S
C560        H562   1.084       .  S
C563        C564   1.379       .  D
C563        H565   1.085       .  S
C564        H566   1.085       .  S
C567        C568   1.359       .  D
C567        H569   1.086       .  S
C568        H570   1.086       .  S
C571        C572   1.368       .  D
C571        H573   1.086       .  S
C572        H574   1.085       .  S
C575        C576   1.369       .  D
C575        H577   1.084       .  S
C576        H578   1.085       .  S
C579        C580   1.373       .  D
C579        H581   1.086       .  S
C580        H582   1.085       .  S
C583        C584   1.347       .  D
C583        H585   1.088       .  S
C584        H586   1.086       .  S
C587        C588   1.366       .  D
C587        H589   1.086       .  S
C588        H590   1.085       .  S
C591        C592   1.358       .  D
C591        H593   1.086       .  S
C592        H594   1.087       .  S
C595        C596   1.366       .  D
C595        H597   1.086       .  S
C596        H598   1.081       .  S
C599        C600   1.352       .  D
C599        H601   1.088       .  S
C600        H602   1.085       .  S
C603        C604   1.370       .  D
C603        H605   1.083       .  S
C604        H606   1.086       .  S
C607        C608   1.365       .  D
C607        H609   1.083       .  S
C608        H610   1.086       .  S
C611        C612   1.363       .  D
C611        H613   1.086       .  S
C612        H614   1.083       .  S
C615        C616   1.360       .  D
C615        H617   1.086       .  S
C616        H618   1.085       .  S
C619        C620   1.374       .  D
C619        H621   1.085       .  S
C620        H622   1.087       .  S
C623        C624   1.374       .  D
C623        H625   1.085       .  S
C624        H626   1.085       .  S
C627        C628   1.365       .  D
C627        H629   1.086       .  S
C628        H630   1.086       .  S
