geometry optimzed in LAMMPS
_audit_creation_date              2020-11-30 
_audit_creation_method            'lammps2cif' 
_symmetry_space_group_name_H-M    'P1' 
_symmetry_Int_Tables_number       1 
_symmetry_cell_setting            triclinic 
loop_ 
_symmetry_equiv_pos_as_xyz 
  x,y,z 
_cell_length_a                    39.744422367155444 
_cell_length_b                    40.34870532210136 
_cell_length_c                    40.482965252738715 
_cell_angle_alpha                 90.12260145829103 
_cell_angle_beta                  90.4873536513537 
_cell_angle_gamma                 90.0729949077504 
loop_ 
_atom_site_label 
_atom_site_type_symbol 
_atom_site_fract_x 
_atom_site_fract_y 
_atom_site_fract_z 
_atom_site_charge 
C1          C  0.25747682  0.27616847  0.50102015    -0.00430
C2          C  0.28303339  0.25321677  0.50028873    -0.00430
C3          C  0.27353301  0.45273608  0.28207575    -0.00430
C4          C  0.25378158  0.45403768  0.30988876    -0.00430
C5          C  0.45774723  0.26647905  0.32743659    -0.00430
C6          C  0.45972617  0.28835126  0.30133108    -0.00430
C7          C  0.16479879  0.14222910  0.99979670    -0.00430
C8          C  0.13504640  0.16070684  0.99681663    -0.00430
C9          C  0.95550583  0.16029385  0.18072977    -0.00430
C10         C  0.96015243  0.13707997  0.20571970    -0.00430
C11         C  0.16488481  0.95500893  0.17569767    -0.00430
C12         C  0.14167213  0.95225050  0.20072327    -0.00430
C13         C  0.65190774  0.27416429  0.49669727    -0.00430
C14         C  0.62613373  0.25171131  0.49933251    -0.00430
C15         C  0.28679491  0.65195402  0.49481347    -0.00430
C16         C  0.26691044  0.62377715  0.49489794    -0.00430
C17         C  0.46282155  0.65891932  0.31552602    -0.00430
C18         C  0.45885751  0.62988184  0.29794590    -0.00430
C19         C  0.65597656  0.45019836  0.32097831    -0.00430
C20         C  0.63447892  0.45349566  0.29440026    -0.00430
C21         C  0.45687234  0.28746843  0.69416777    -0.00430
C22         C  0.45365759  0.26162022  0.67232563    -0.00430
C23         C  0.28957206  0.45758302  0.69171576    -0.00430
C24         C  0.26175001  0.46214827  0.67147849    -0.00430
C25         C  0.16062321  0.77687551  0.99760800    -0.00430
C26         C  0.13993522  0.74901766  0.99427316    -0.00430
C27         C  0.79199360  0.15468544  0.99328988    -0.00430
C28         C  0.76807966  0.12947943  0.99275578    -0.00430
C29         C  0.95823089  0.16673928  0.81074320    -0.00430
C30         C  0.96050200  0.14126267  0.78680449    -0.00430
C31         C  0.16212647  0.95607559  0.81887241    -0.00430
C32         C  0.14215816  0.95814239  0.79003466    -0.00430
C33         C  0.95983328  0.77961835  0.19433919    -0.00430
C34         C  0.96137008  0.75285505  0.17242805    -0.00430
C35         C  0.77973658  0.95966872  0.19586083    -0.00430
C36         C  0.75664805  0.96098312  0.16966692    -0.00430
N37         N  0.28860771  0.49560550  0.96037117    -0.07110
N38         N  0.30779739  0.49894706  0.93426682    -0.59230
N39         N  0.26535482  0.51742140  0.03554762    -0.06790
N40         N  0.26966662  0.53910378  0.05950170    -0.61360
N41         N  0.28968922  0.49554823  0.03564826    -0.06390
N42         N  0.31139118  0.50207721  0.05965592    -0.59210
N43         N  0.26416053  0.51741102  0.95985133    -0.06070
N44         N  0.26613881  0.53611843  0.93325135    -0.61710
C45         C  0.29373621  0.52451843  0.91767802     0.95070
C46         C  0.29865410  0.52960996  0.07420103     0.94840
N47         N  0.16214723  0.49417171  0.03660618    -0.07300
N48         N  0.13778522  0.50551372  0.05581919    -0.59810
N49         N  0.18576798  0.51781255  0.96154997    -0.05420
N50         N  0.17836342  0.54477742  0.94487715    -0.61060
N51         N  0.15998112  0.49724258  0.96217018    -0.07330
N52         N  0.13400957  0.51101752  0.94654996    -0.60080
N53         N  0.18721829  0.51565075  0.03643345    -0.05060
N54         N  0.18093424  0.54085550  0.05597544    -0.61150
Mn55       Mn  0.22568793  0.51731749  0.99827999     1.18440
C56         C  0.15038672  0.53435865  0.06838772     0.97150
C57         C  0.14634811  0.54031424  0.93517386     0.97810
N58         N  0.28889601  0.41797702  0.03523694    -0.07350
N59         N  0.30488195  0.41765067  0.06384937    -0.63650
N60         N  0.26560566  0.39720269  0.95717529    -0.06150
N61         N  0.26543280  0.38244343  0.92804878    -0.64330
N62         N  0.28929578  0.41985046  0.95851128    -0.06850
N63         N  0.30571240  0.42106991  0.93036668    -0.63920
N64         N  0.26550280  0.39496901  0.03454696    -0.05750
N65         N  0.26502424  0.37872430  0.06282652    -0.64610
Mn66       Mn  0.29050986  0.45687605  0.99770877     1.10660
C67         C  0.28976890  0.39315147  0.08095844     0.98370
C68         C  0.29054262  0.39765429  0.91159794     0.98450
N69         N  0.16181117  0.41531205  0.95861045    -0.06860
N70         N  0.13695869  0.40380437  0.93973027    -0.62230
N71         N  0.18772153  0.39064213  0.03243005    -0.06180
N72         N  0.18072987  0.36281948  0.04790077    -0.58960
N73         N  0.16192880  0.41118012  0.03312964    -0.07490
N74         N  0.13653096  0.39658993  0.04859354    -0.61800
N75         N  0.18740779  0.39456178  0.95771875    -0.06480
N76         N  0.18080573  0.36952323  0.93788507    -0.58990
Mn77       Mn  0.16031834  0.45449205  0.99777898     1.20190
Mn78       Mn  0.22708059  0.39372399  0.99542256     1.10090
Cl79       Cl  0.22560242  0.45560507  0.99743727    -0.86960
C80         C  0.14947472  0.37541725  0.92647881     0.95380
C81         C  0.14890485  0.36656202  0.05816015     0.95170
N82         N  0.63383055  0.41881259  0.95549099    -0.07110
N83         N  0.61717790  0.41834473  0.92708069    -0.59230
N84         N  0.65635675  0.39229408  0.03210573    -0.06790
N85         N  0.65419903  0.37304356  0.05835971    -0.61360
N86         N  0.63240659  0.41457554  0.03219592    -0.06390
N87         N  0.61344465  0.41112880  0.05844482    -0.59210
N88         N  0.65739399  0.39602239  0.95552796    -0.06070
N89         N  0.65717775  0.37935500  0.92746367    -0.61710
C90         C  0.63201617  0.39349181  0.90995130     0.95070
C91         C  0.62695620  0.38489124  0.07435739     0.94840
N92         N  0.75982879  0.41356004  0.03369929    -0.07300
N93         N  0.78449848  0.40082958  0.05195162    -0.59810
N94         N  0.73510930  0.39600975  0.95791753    -0.05420
N95         N  0.74212839  0.37073314  0.93874179    -0.61060
N96         N  0.76042902  0.41716328  0.95916630    -0.07330
N97         N  0.78569999  0.40552496  0.94132549    -0.60080
N98         N  0.73436369  0.39260254  0.03263902    -0.05060
N99         N  0.74069028  0.36623009  0.05057273    -0.61150
Mn100      Mn  0.69555403  0.39372518  0.99460699     1.18440
C101        C  0.77166801  0.37161909  0.06294562     0.97150
C102        C  0.77343059  0.37682690  0.92822987     0.97810
N103        N  0.63279953  0.49043838  0.03779546    -0.07350
N104        N  0.61691629  0.48897514  0.06630697    -0.63650
N105        N  0.65589234  0.51836633  0.96232825    -0.06150
N106        N  0.65395188  0.53769248  0.93608670    -0.64330
N107        N  0.63244145  0.49551619  0.96113857    -0.06850
N108        N  0.61409140  0.49871497  0.93415318    -0.63920
N109        N  0.65622159  0.51335821  0.03900758    -0.05750
N110        N  0.65662302  0.52801634  0.06813613    -0.64610
Mn111      Mn  0.63135835  0.45488535  0.99651498     1.10660
C112        C  0.63196386  0.51274210  0.08503912     0.98370
C113        C  0.62763192  0.52517636  0.91867943     0.98450
N114        N  0.76039958  0.49977949  0.96361555    -0.06860
N115        N  0.78562407  0.51408803  0.94752666    -0.62230
N116        N  0.73367066  0.51552159  0.03882794    -0.06180
N117        N  0.74056918  0.54102310  0.05789519    -0.58960
N118        N  0.75928268  0.49485048  0.03784478    -0.07490
N119        N  0.78448843  0.50693604  0.05582109    -0.61800
N120        N  0.73451781  0.52021484  0.96437371    -0.06480
N121        N  0.74122257  0.54768017  0.94840191    -0.58990
Mn122      Mn  0.76119202  0.45628175  0.99844999     1.20190
Mn123      Mn  0.69468857  0.51735268  0.00099517     1.10090
Cl124      Cl  0.69596354  0.45558527  0.99746291    -0.86960
C125        C  0.77293228  0.54390512  0.93772489     0.95380
C126        C  0.77216786  0.53560810  0.06856167     0.95170
C127        C  0.82456087  0.24975962  0.88854956    -0.00430
C128        C  0.84883025  0.25005041  0.86370561    -0.00430
C129        C  0.83355901  0.66249857  0.09517190    -0.00430
C130        C  0.86224858  0.66236079  0.11535459    -0.00430
N131        N  0.91793720  0.41740423  0.79491397    -0.07110
N132        N  0.89936475  0.40421119  0.81863178    -0.59230
N133        N  0.99387816  0.39394893  0.77206741    -0.06790
N134        N  0.01106769  0.36703305  0.77918812    -0.61360
N135        N  0.99340477  0.41430838  0.79761995    -0.06390
N136        N  0.00974766  0.40084892  0.82288799    -0.59210
N137        N  0.91803448  0.39728787  0.76920189    -0.06070
N138        N  0.89914823  0.37125598  0.77444575    -0.61710
C139        C  0.88751895  0.37548929  0.80514951     0.95070
C140        C  0.02123675  0.37175698  0.81060338     0.94840
N141        N  0.99639137  0.41974717  0.67170509    -0.07300
N142        N  0.02297958  0.41616991  0.65285533    -0.59810
N143        N  0.91856401  0.39964292  0.69319666    -0.05420
N144        N  0.89114021  0.38158574  0.69036133    -0.61060
N145        N  0.91877874  0.42309659  0.67088780    -0.07330
N146        N  0.89121709  0.42160512  0.65241717    -0.60080
N147        N  0.99575213  0.39668008  0.69444100    -0.05060
N148        N  0.02170446  0.37664443  0.69144264    -0.61150
Mn149      Mn  0.95680387  0.39647603  0.73197428     1.18440
C150        C  0.03856902  0.38915437  0.66544057     0.97150
C151        C  0.87411052  0.39545486  0.66497123     0.97810
N152        N  0.99817093  0.49501340  0.79981793    -0.07350
N153        N  0.01751086  0.50489323  0.82483368    -0.63650
N154        N  0.92409292  0.52139402  0.77401440    -0.06150
N155        N  0.90667073  0.54814639  0.78097925    -0.64330
N156        N  0.92190150  0.49942220  0.79794224    -0.06850
N157        N  0.90337936  0.51172983  0.82218109    -0.63920
N158        N  0.00030197  0.51648846  0.77545183    -0.05750
N159        N  0.02135752  0.54047482  0.78297674    -0.64610
Mn160      Mn  0.95762340  0.45657450  0.79878491     1.10660
C161        C  0.03245652  0.53298073  0.81352663     0.98370
C162        C  0.89350610  0.54192642  0.81077519     0.98450
N163        N  0.92282392  0.49931875  0.67437174    -0.06860
N164        N  0.89377949  0.50067878  0.65871273    -0.62230
N165        N  0.00189423  0.51762365  0.69874240    -0.06180
N166        N  0.03070042  0.53392221  0.69776405    -0.58960
N167        N  0.00003989  0.49595742  0.67460666    -0.07490
N168        N  0.02738838  0.49703932  0.65660996    -0.61800
N169        N  0.92401104  0.52149966  0.69807616    -0.06480
N170        N  0.89572033  0.53843501  0.69902565    -0.58990
Mn171      Mn  0.95945465  0.45973563  0.67153240     1.20190
Mn172      Mn  0.96279900  0.51996983  0.73624725     1.10090
Cl173      Cl  0.95922461  0.45814848  0.73510806    -0.86960
C174        C  0.87711123  0.52522232  0.67428993     0.95380
C175        C  0.04624625  0.52096694  0.67111622     0.95170
C176        C  0.08931492  0.24977753  0.89173850    -0.00430
C177        C  0.06161742  0.24836383  0.87045685    -0.00430
C178        C  0.83227740  0.66873099  0.89377395    -0.00430
C179        C  0.85723316  0.66720704  0.87016145    -0.00430
C180        C  0.05405891  0.65799249  0.87575707    -0.00430
C181        C  0.07734037  0.66248171  0.90151187    -0.00430
C182        C  0.83542315  0.24724842  0.09601419    -0.00430
C183        C  0.85801488  0.24718205  0.12225675    -0.00430
N184        N  0.92559115  0.49685767  0.19457133    -0.07110
N185        N  0.90943894  0.50953964  0.16870921    -0.59230
N186        N  0.00151224  0.51560081  0.22277160    -0.06790
N187        N  0.02000420  0.54180452  0.21652066    -0.61360
N188        N  0.00109519  0.49496147  0.19749765    -0.06390
N189        N  0.01850703  0.50813796  0.17292009    -0.59210
N190        N  0.92521555  0.51819837  0.21933485    -0.06070
N191        N  0.90816668  0.54494684  0.21109635    -0.61710
C192        C  0.89802024  0.53922816  0.17976210     0.95070
C193        C  0.03099175  0.53694442  0.18568310     0.94840
N194        N  0.00003181  0.49082845  0.32134961    -0.07300
N195        N  0.02644410  0.49309557  0.34094906    -0.59810
N196        N  0.92393518  0.51650311  0.29742296    -0.05420
N197        N  0.89778740  0.53623434  0.30065747    -0.61060
N198        N  0.92437621  0.49411414  0.32085880    -0.07330
N199        N  0.89871334  0.49777036  0.34055633    -0.60080
N200        N  0.00050547  0.51409484  0.29884522    -0.05060
N201        N  0.02733968  0.53286095  0.30266106    -0.61150
Mn202      Mn  0.96250954  0.51660564  0.25979763     1.18440
C203        C  0.04317427  0.51957045  0.32919304     0.97150
C204        C  0.88249854  0.52401882  0.32772125     0.97810
N205        N  0.99835708  0.41278486  0.19913998    -0.07350
N206        N  0.01889162  0.40116930  0.17626158    -0.63650
N207        N  0.91926570  0.39467521  0.22075643    -0.06150
N208        N  0.90058423  0.36889502  0.21295592    -0.64330
N209        N  0.92220422  0.41491829  0.19534050    -0.06850
N210        N  0.90591198  0.40217338  0.16950102    -0.63920
N211        N  0.99533858  0.39079574  0.22299937    -0.05750
N212        N  0.01394746  0.36456083  0.21702944    -0.64610
Mn213      Mn  0.96194822  0.45474524  0.19550840     1.10660
C214        C  0.02867180  0.37107012  0.18789659     0.98370
C215        C  0.89212246  0.37366848  0.18114599     0.98450
N216        N  0.91941479  0.41891952  0.32204798    -0.06860
N217        N  0.89293264  0.41905648  0.34133887    -0.62230
N218        N  0.99523871  0.39166860  0.29905842    -0.06180
N219        N  0.02284723  0.37354227  0.29966835    -0.58960
N220        N  0.99675692  0.41474451  0.32182838    -0.07490
N221        N  0.02522169  0.41290147  0.33856388    -0.61800
N222        N  0.91629154  0.39653245  0.29868887    -0.06480
N223        N  0.88715774  0.38080618  0.30158872    -0.58990
Mn224      Mn  0.96036057  0.45449444  0.32249911     1.20190
Mn225      Mn  0.95610066  0.39269568  0.26067482     1.10090
Cl226      Cl  0.96002610  0.45464620  0.25901459    -0.86960
C227        C  0.87293186  0.39527926  0.32842458     0.95380
C228        C  0.04109045  0.38683826  0.32474201     0.95170
N229        N  0.41102253  0.27993287  0.95296966    -0.07110
N230        N  0.40651317  0.29677239  0.92527789    -0.59230
N231        N  0.39020276  0.25619505  0.02944627    -0.06790
N232        N  0.37057851  0.25798052  0.05544382    -0.61360
N233        N  0.41158748  0.28091678  0.02922811    -0.06390
N234        N  0.40715191  0.30009282  0.05508242    -0.59210
N235        N  0.38990016  0.25493498  0.95397328    -0.06070
N236        N  0.37048809  0.25412699  0.92748635    -0.61710
C237        C  0.38087328  0.28041823  0.90997242     0.95070
C238        C  0.38144369  0.28554462  0.07123272     0.94840
N239        N  0.41807996  0.15604790  0.02992165    -0.07300
N240        N  0.40724713  0.13068156  0.04772155    -0.59810
N241        N  0.39621011  0.17928598  0.95460047    -0.05420
N242        N  0.37205197  0.17236371  0.93342840    -0.61060
N243        N  0.41926443  0.15587836  0.95480638    -0.07330
N244        N  0.41016366  0.13181608  0.93421756    -0.60080
N245        N  0.39513257  0.17957118  0.02976474    -0.05060
N246        N  0.36915975  0.17116457  0.04777620    -0.61150
Mn247      Mn  0.39241374  0.21759662  0.99210823     1.18440
C248        C  0.37685733  0.14084043  0.05911021     0.97150
C249        C  0.38098598  0.14305769  0.92043436     0.97810
N250        N  0.48961798  0.28529161  0.03114312    -0.07350
N251        N  0.48971200  0.30070308  0.06004516    -0.63650
N252        N  0.51306935  0.26428170  0.95269329    -0.06150
N253        N  0.52974252  0.26745448  0.92469767    -0.64330
N254        N  0.48868445  0.28617777  0.95394138    -0.06850
N255        N  0.48820944  0.30471558  0.92719242    -0.63920
N256        N  0.51455112  0.26402483  0.03008217    -0.05750
N257        N  0.53209444  0.26470579  0.05784448    -0.64610
Mn258      Mn  0.45033837  0.28453965  0.99191062     1.10660
C259        C  0.51658901  0.28778429  0.07646337     0.98370
C260        C  0.51386301  0.29286341  0.90913219     0.98450
N261        N  0.50181122  0.15983769  0.95689566    -0.06860
N262        N  0.51771229  0.13458205  0.94291078    -0.62230
N263        N  0.52113254  0.18741224  0.03018757    -0.06180
N264        N  0.54772494  0.18174058  0.04899030    -0.58960
N265        N  0.50028223  0.16196601  0.03105687    -0.07490
N266        N  0.51296614  0.13839349  0.05012556    -0.61800
N267        N  0.52094775  0.18654559  0.95558030    -0.06480
N268        N  0.54919719  0.18012835  0.94029352    -0.58990
Mn269      Mn  0.45978029  0.15728984  0.99319845     1.20190
Mn270      Mn  0.51803852  0.22611766  0.99183090     1.10090
Cl271      Cl  0.45529741  0.22099418  0.99226866    -0.86960
C272        C  0.54698153  0.14796141  0.93201200     0.95380
C273        C  0.54231384  0.15135142  0.06177206     0.95170
N274        N  0.42290659  0.91563147  0.66937196    -0.07110
N275        N  0.42121919  0.88830257  0.65158771    -0.59230
N276        N  0.40126085  0.99350629  0.69148849    -0.06790
N277        N  0.38589076  0.02246960  0.69098593    -0.61360
N278        N  0.42549742  0.99286061  0.66965354    -0.06390
N279        N  0.42720202  0.02154241  0.65402605    -0.59210
N280        N  0.39897587  0.91609077  0.69138745    -0.06070
N281        N  0.38057905  0.88892186  0.68920641    -0.61710
C282        C  0.39447874  0.87185077  0.66401063     0.95070
C283        C  0.40235119  0.03988386  0.66763211     0.94840
N284        N  0.41487144  0.99189030  0.79416662    -0.07300
N285        N  0.40031424  0.00795304  0.81888618    -0.59810
N286        N  0.39474340  0.91711314  0.76769660    -0.05420
N287        N  0.36791922  0.89898953  0.77348220    -0.61060
N288        N  0.41527113  0.91715877  0.79347739    -0.07330
N289        N  0.40182842  0.89954564  0.81757684    -0.60080
N290        N  0.39459189  0.99217034  0.76818119    -0.05060
N291        N  0.36690623  0.00884401  0.77451195    -0.61150
Mn292      Mn  0.39684700  0.95476004  0.72918934     1.18440
C293        C  0.37053832  0.01880288  0.80605782     0.97150
C294        C  0.37272727  0.88759488  0.80433567     0.97810
N295        N  0.50252645  0.98900071  0.67284379    -0.07350
N296        N  0.50618086  0.01475698  0.65355989    -0.63650
N297        N  0.52319647  0.91382574  0.69830954    -0.06150
N298        N  0.54216347  0.88699128  0.69745246    -0.64330
N299        N  0.50078643  0.91334900  0.67428539    -0.06850
N300        N  0.50379953  0.88606721  0.65660423    -0.63920
N301        N  0.52441081  0.98989070  0.69719042    -0.05750
N302        N  0.54368207  0.01639582  0.69499707    -0.64610
Mn303      Mn  0.46280853  0.95257237  0.67023555     1.10660
C304        C  0.53190902  0.03163731  0.66756293     0.98370
C305        C  0.52978700  0.87000863  0.67125855     0.98450
N306        N  0.49797551  0.91668823  0.79849132    -0.06860
N307        N  0.50976804  0.89963002  0.82410815    -0.62230
N308        N  0.52155176  0.99116206  0.77444727    -0.06180
N309        N  0.54802449  0.00895493  0.78299176    -0.58960
N310        N  0.49878929  0.99159358  0.79802784    -0.07490
N311        N  0.51033670  0.00922733  0.82343434    -0.61800
N312        N  0.52026197  0.91612939  0.77457456    -0.06480
N313        N  0.54656390  0.89836283  0.78289520    -0.58990
Mn314      Mn  0.45670221  0.95443798  0.79712438     1.20190
Mn315      Mn  0.52282249  0.95289483  0.73594352     1.10090
Cl316      Cl  0.45978523  0.95381668  0.73364006    -0.86960
C317        C  0.54001207  0.88804960  0.81361146     0.95380
C318        C  0.54069055  0.02068233  0.81319749     0.95170
C319        C  0.25316485  0.83748668  0.90142759    -0.00430
C320        C  0.24977749  0.85910563  0.87495133    -0.00430
C321        C  0.67067048  0.08001061  0.89988006    -0.00430
C322        C  0.66697557  0.05726820  0.87448941    -0.00430
C323        C  0.66744489  0.85919892  0.87526314    -0.00430
C324        C  0.66570917  0.83631476  0.90066985    -0.00430
N325        N  0.41694476  0.75175888  0.96239160    -0.07110
N326        N  0.40428237  0.77594333  0.94392465    -0.59230
N327        N  0.39872738  0.72480340  0.03775813    -0.06790
N328        N  0.37207433  0.73062793  0.05578294    -0.61360
N329        N  0.41902619  0.75066826  0.03731520    -0.06390
N330        N  0.40519109  0.77511132  0.05457229    -0.59210
N331        N  0.39560502  0.72673136  0.96301641    -0.06070
N332        N  0.36882071  0.73317029  0.94490405    -0.61710
C333        C  0.37442403  0.76360172  0.93255947     0.95070
C334        C  0.37621306  0.76176951  0.06656281     0.94840
N335        N  0.42560114  0.62618549  0.03720610    -0.07300
N336        N  0.42625569  0.60979210  0.06549491    -0.59810
N337        N  0.39797840  0.64980063  0.96092363    -0.05420
N338        N  0.37978579  0.64859886  0.93348378    -0.61060
N339        N  0.42126885  0.62688188  0.96064917    -0.07330
N340        N  0.41970989  0.60972348  0.93319150    -0.60080
N341        N  0.40179893  0.64868659  0.03765032    -0.05060
N342        N  0.38570193  0.64792090  0.06596065    -0.61150
Mn343      Mn  0.39796749  0.68716077  0.99971924     1.18440
C344        C  0.40090399  0.62339463  0.08318835     0.97150
C345        C  0.39352589  0.62302166  0.91667763     0.97810
N346        N  0.50295006  0.75123680  0.03482716    -0.07350
N347        N  0.51569866  0.77528631  0.05355937    -0.63650
N348        N  0.52105279  0.72838507  0.95823371    -0.06150
N349        N  0.54664911  0.73570818  0.93934536    -0.64330
N350        N  0.49990145  0.75341945  0.96007346    -0.06850
N351        N  0.51191978  0.77870208  0.94281791    -0.63920
N352        N  0.52483272  0.72672433  0.03299049    -0.05750
N353        N  0.55185553  0.73318358  0.05080876    -0.64610
Mn354      Mn  0.45972171  0.75306568  0.99877470     1.10660
C355        C  0.54595908  0.76319522  0.06389364     0.98370
C356        C  0.54100361  0.76701022  0.92954595     0.98450
N357        N  0.49800204  0.62798510  0.95516967    -0.06860
N358        N  0.49832949  0.61107844  0.92712943    -0.62230
N359        N  0.52568858  0.64986824  0.03160845    -0.06180
N360        N  0.54592944  0.64694441  0.05751926    -0.58960
N361        N  0.50292587  0.62637476  0.03156117    -0.07490
N362        N  0.50698030  0.60688152  0.05716231    -0.61800
N363        N  0.52071692  0.65159717  0.95461819    -0.06480
N364        N  0.53701309  0.65114706  0.92631590    -0.58990
Mn365      Mn  0.46188410  0.62547720  0.99624188     1.20190
Mn366      Mn  0.52362908  0.68893225  0.99436156     1.10090
Cl367      Cl  0.46081816  0.68896625  0.99732694    -0.86960
C368        C  0.52301391  0.62564223  0.90928368     0.95380
C369        C  0.53412803  0.61957875  0.07286959     0.95170
C370        C  0.25456535  0.85357751  0.11726850    -0.00430
C371        C  0.24960769  0.82375267  0.10040712    -0.00430
C372        C  0.24758964  0.05973339  0.87296553    -0.00430
C373        C  0.25285715  0.08520946  0.89597256    -0.00430
C374        C  0.66946173  0.85138230  0.12267383    -0.00430
C375        C  0.67245319  0.82370641  0.10239990    -0.00430
N376        N  0.42125668  0.91513981  0.19833956    -0.07110
N377        N  0.40786765  0.89622511  0.17474432    -0.59230
N378        N  0.40054122  0.99147202  0.21814591    -0.06790
N379        N  0.37356196  0.00855919  0.21024680    -0.61360
N380        N  0.42116229  0.98940615  0.19280506    -0.06390
N381        N  0.40751977  0.00454584  0.16685908    -0.59210
N382        N  0.40035210  0.91702166  0.22343655    -0.06070
N383        N  0.37318951  0.89928379  0.21749280    -0.61710
C384        C  0.37805962  0.88588938  0.18741127     0.95070
C385        C  0.37816085  0.01704866  0.17852356     0.94840
N386        N  0.42786415  0.00027889  0.31775459    -0.07300
N387        N  0.42586307  0.02799882  0.33478845    -0.59810
N388        N  0.40455252  0.92172190  0.30138500    -0.05420
N389        N  0.38641665  0.89471671  0.30622811    -0.61060
N390        N  0.42844833  0.92397388  0.32386666    -0.07330
N391        N  0.42708945  0.89855808  0.34431580    -0.60080
N392        N  0.40398617  0.99890445  0.29521910    -0.05060
N393        N  0.38518101  0.02592055  0.29640685    -0.61150
Mn394      Mn  0.40181354  0.95727087  0.25992323     1.18440
C395        C  0.39903251  0.04377122  0.32146925     0.97150
C396        C  0.40053063  0.88046074  0.33327564     0.97810
N397        N  0.50502851  0.98932365  0.19093946    -0.07350
N398        N  0.51755769  0.00429303  0.16453979    -0.63650
N399        N  0.52627535  0.91708201  0.22182784    -0.06150
N400        N  0.55219280  0.89782388  0.21633644    -0.64330
N401        N  0.50414958  0.91492225  0.19746055    -0.06850
N402        N  0.51557307  0.89445994  0.17445211    -0.63920
N403        N  0.52679259  0.99173692  0.21563116    -0.05750
N404        N  0.55334440  0.00900595  0.20702869    -0.64610
Mn405      Mn  0.46291653  0.95218747  0.19377948     1.10660
C406        C  0.54733470  0.01714441  0.17543872     0.98370
C407        C  0.54529694  0.88339218  0.18711750     0.98450
N408        N  0.50599721  0.92405604  0.32147438    -0.06860
N409        N  0.50707025  0.89698835  0.33970658    -0.62230
N410        N  0.52816145  0.99974288  0.29153716    -0.06180
N411        N  0.54526511  0.02772214  0.28885661    -0.58960
N412        N  0.50550735  0.00207655  0.31483042    -0.07490
N413        N  0.50648238  0.03196817  0.32829119    -0.61800
N414        N  0.52844165  0.92238414  0.29801357    -0.06480
N415        N  0.54546273  0.89434727  0.29999775    -0.58990
Mn416      Mn  0.46715294  0.96272799  0.32076576     1.20190
Mn417      Mn  0.52789104  0.95776697  0.25717119     1.10090
Cl418      Cl  0.46476485  0.95748182  0.25737755    -0.86960
C419        C  0.53217224  0.87875601  0.32643008     0.95380
C420        C  0.53174472  0.04752311  0.31217682     0.95170
N421        N  0.28239911  0.91759821  0.46049164    -0.07110
N422        N  0.30100261  0.89079222  0.45966640    -0.59230
N423        N  0.25846471  0.99377013  0.43785140    -0.06790
N424        N  0.26199719  0.02001104  0.41872738    -0.61360
N425        N  0.28195983  0.99346577  0.46079184    -0.06390
N426        N  0.30186854  0.01943970  0.45785396    -0.59210
N427        N  0.25896919  0.91656631  0.43752110    -0.06070
N428        N  0.26105824  0.88855171  0.42065611    -0.61710
C429        C  0.28769116  0.87282008  0.43465349     0.95070
C430        C  0.28918154  0.03596190  0.43149695     0.94840
N431        N  0.15342327  0.99027943  0.45702301    -0.07300
N432        N  0.12801200  0.00834831  0.44556552    -0.59810
N433        N  0.18109955  0.91643333  0.43417262    -0.05420
N434        N  0.17533362  0.89885343  0.40733010    -0.61060
N435        N  0.15513772  0.91544946  0.45426050    -0.07330
N436        N  0.13062922  0.89782707  0.44007909    -0.60080
N437        N  0.17887995  0.99176583  0.43630697    -0.05060
N438        N  0.17161346  0.01141648  0.41134521    -0.61150
Mn439      Mn  0.21956669  0.95480146  0.43587030     1.18440
C440        C  0.14013711  0.02203284  0.41743803     0.97150
C441        C  0.14416512  0.88681217  0.41120702     0.97810
N442        N  0.28136150  0.99187601  0.53727639    -0.07350
N443        N  0.30142795  0.01745545  0.54095906    -0.63650
N444        N  0.25836184  0.91601061  0.55874740    -0.06150
N445        N  0.26191806  0.89020343  0.57832988    -0.64330
N446        N  0.28238308  0.91679993  0.53679865    -0.06850
N447        N  0.30305501  0.89167412  0.54110691    -0.63920
N448        N  0.25740415  0.99233851  0.55932443    -0.05750
N449        N  0.26050520  0.01875938  0.57847366    -0.64610
Mn450      Mn  0.28306205  0.95497380  0.49871862     1.10660
C451        C  0.28811078  0.03423784  0.56646978     0.98370
C452        C  0.29015174  0.87538462  0.56734183     0.98450
N453        N  0.15464532  0.91386690  0.53734743    -0.06860
N454        N  0.13027933  0.89483304  0.54939128    -0.62230
N455        N  0.17893743  0.98961656  0.55919239    -0.06180
N456        N  0.17233447  0.00742357  0.58547875    -0.58960
N457        N  0.15287856  0.98859310  0.53882074    -0.07490
N458        N  0.12746164  0.00522590  0.55208808    -0.61800
N459        N  0.18012031  0.91463810  0.55846725    -0.06480
N460        N  0.17416717  0.89563439  0.58405856    -0.58990
Mn461      Mn  0.15279829  0.95187237  0.49679905     1.20190
Mn462      Mn  0.21880419  0.95323542  0.55925674     1.10090
Cl463      Cl  0.21825500  0.95376379  0.49763301    -0.86960
C464        C  0.14339141  0.88296799  0.57825111     0.95380
C465        C  0.14053142  0.01747496  0.58086116     0.95170
N466        N  0.99738917  0.27973861  0.45273822    -0.07110
N467        N  0.02440228  0.29814816  0.44953950    -0.59230
N468        N  0.91894208  0.25637344  0.43413476    -0.06790
N469        N  0.88992402  0.25648807  0.41804783    -0.61360
N470        N  0.91974405  0.27972440  0.45674471    -0.06390
N471        N  0.89106303  0.29618056  0.45674427    -0.59210
N472        N  0.99692126  0.25596012  0.43068079    -0.06070
N473        N  0.02382455  0.25762317  0.41178148    -0.61710
C474        C  0.04070695  0.28418731  0.42396410     0.95070
C475        C  0.87284921  0.28148210  0.43234043     0.94840
N476        N  0.91950610  0.15534007  0.45593013    -0.07300
N477        N  0.90033359  0.13094204  0.44425793    -0.59810
N478        N  0.99489399  0.17888203  0.43147959    -0.05420
N479        N  0.01157885  0.17171004  0.40455954    -0.61060
N480        N  0.99518931  0.15375211  0.45233912    -0.07330
N481        N  0.01165554  0.12853257  0.43886882    -0.60080
N482        N  0.91909856  0.18021677  0.43487289    -0.05060
N483        N  0.89923560  0.17377670  0.40967668    -0.61150
Mn484      Mn  0.95763871  0.21813785  0.43233423     1.18440
C485        C  0.88721660  0.14333011  0.41566056     0.97150
C486        C  0.02214859  0.14053936  0.40926858     0.97810
N487        N  0.92621244  0.28227085  0.53296558    -0.07350
N488        N  0.90043978  0.30218966  0.53692951    -0.63650
N489        N  0.00420313  0.25694218  0.55121328    -0.06150
N490        N  0.03320923  0.25743019  0.56715709    -0.64330
N491        N  0.00326434  0.28006016  0.52848442    -0.06850
N492        N  0.03175018  0.29687232  0.52851710    -0.63920
N493        N  0.92695044  0.25967276  0.55610898    -0.05750
N494        N  0.90159433  0.26380392  0.57650954    -0.64610
Mn495      Mn  0.96154259  0.28170948  0.49265696     1.10660
C496        C  0.88537531  0.29071370  0.56436086     0.98370
C497        C  0.05026349  0.28237474  0.55270121     0.98450
N498        N  0.99921544  0.15446768  0.53479402    -0.06860
N499        N  0.01558614  0.12906182  0.54820061    -0.62230
N500        N  0.92537602  0.18246669  0.55793208    -0.06180
N501        N  0.90782730  0.17729532  0.58471402    -0.58960
N502        N  0.92352552  0.15674774  0.53784641    -0.07490
N503        N  0.90503757  0.13317383  0.55173803    -0.61800
N504        N  0.00132825  0.18027011  0.55479066    -0.06480
N505        N  0.01975743  0.17334020  0.58096042    -0.58990
Mn506      Mn  0.95935201  0.15373825  0.49520846     1.20190
Mn507      Mn  0.96445771  0.22013207  0.55540344     1.10090
Cl508      Cl  0.96075370  0.21785366  0.49394181    -0.86960
C509        C  0.02880578  0.14160315  0.57674935     0.95380
C510        C  0.89492265  0.14668962  0.58091830     0.95170
C511        C  0.85795799  0.07734557  0.29241059    -0.00430
C512        C  0.83104889  0.05525835  0.29109592    -0.00430
N513        N  0.63297283  0.99718850  0.45682064    -0.07110
N514        N  0.61308471  0.02305452  0.45332251    -0.59230
N515        N  0.65906285  0.92284224  0.43164960    -0.06790
N516        N  0.65783008  0.89686342  0.41188702    -0.61360
N517        N  0.63448837  0.92184575  0.45298543    -0.06390
N518        N  0.61602962  0.89527103  0.44838949    -0.59210
N519        N  0.65771743  0.99854075  0.43565231    -0.06070
N520        N  0.65552855  0.02530348  0.41727455    -0.61710
C521        C  0.62768814  0.04028941  0.42867034     0.95070
C522        C  0.63075781  0.87988444  0.42265630     0.94840
N523        N  0.76281682  0.92484620  0.45436967    -0.07300
N524        N  0.78855016  0.90882970  0.44062006    -0.59810
N525        N  0.73479088  0.00011026  0.43812377    -0.05420
N526        N  0.74221860  0.01841646  0.41247834    -0.61060
N527        N  0.76010152  0.99912458  0.45932934    -0.07330
N528        N  0.78594557  0.01578717  0.44709846    -0.60080
N529        N  0.73734233  0.92517578  0.43323887    -0.05060
N530        N  0.74463229  0.90893480  0.40606393    -0.61150
Mn531      Mn  0.69703686  0.96155767  0.43446190     1.18440
C532        C  0.77638372  0.89855498  0.41055587     0.97150
C533        C  0.77385746  0.02843896  0.41826571     0.97810
N534        N  0.63116579  0.91645137  0.52857678    -0.07350
N535        N  0.61365715  0.88861817  0.52746752    -0.63650
N536        N  0.65180573  0.99302891  0.55671028    -0.06150
N537        N  0.64962490  0.02058701  0.57447465    -0.64330
N538        N  0.62946850  0.99342544  0.53274549    -0.06850
N539        N  0.61182410  0.02098510  0.53360411    -0.63920
N540        N  0.65431368  0.91507778  0.55186452    -0.05750
N541        N  0.65306067  0.88624471  0.56714431    -0.64610
Mn542      Mn  0.63071833  0.95723436  0.49290008     1.10660
C543        C  0.62760826  0.86996112  0.55164710     0.98370
C544        C  0.62422594  0.03782327  0.55986696     0.98450
N545        N  0.75545329  0.99619279  0.54129467    -0.06860
N546        N  0.77788248  0.01589329  0.55604771    -0.62230
N547        N  0.73392866  0.91886450  0.55774091    -0.06180
N548        N  0.74221979  0.90100909  0.58386101    -0.58960
N549        N  0.75974021  0.92119538  0.53748238    -0.07490
N550        N  0.78608825  0.90559515  0.55041122    -0.61800
N551        N  0.72852489  0.99434404  0.56001486    -0.06480
N552        N  0.73133225  0.01339797  0.58617438    -0.58990
Mn553      Mn  0.76077883  0.96024694  0.49835050     1.20190
Mn554      Mn  0.69187341  0.95493086  0.55724824     1.10090
Cl555      Cl  0.69543499  0.95820816  0.49578116    -0.86960
C556        C  0.76197156  0.02695286  0.58377050     0.95380
C557        C  0.77456315  0.89230754  0.57894948     0.95170
C558        C  0.84266286  0.86853632  0.70434476    -0.00430
C559        C  0.86975733  0.84667825  0.70408021    -0.00430
N560        N  0.91890055  0.65412391  0.53228402    -0.07110
N561        N  0.90714073  0.63022659  0.55157918    -0.59230
N562        N  0.89566218  0.68019677  0.45843587    -0.06790
N563        N  0.86761290  0.67363722  0.44226780    -0.61360
N564        N  0.91658720  0.65478006  0.45740701    -0.06390
N565        N  0.90185920  0.63002911  0.44101614    -0.59210
N566        N  0.89815720  0.67955009  0.53313132    -0.06070
N567        N  0.87297899  0.67388632  0.55313841    -0.61710
C568        C  0.87860679  0.64323895  0.56485940     0.95070
C569        C  0.87158491  0.64261424  0.43112646     0.94840
N570        N  0.92059836  0.78042550  0.45876312    -0.07300
N571        N  0.91695235  0.79955365  0.43263221    -0.59810
N572        N  0.89978312  0.75621465  0.53521029    -0.05420
N573        N  0.88143246  0.75938418  0.56212354    -0.61060
N574        N  0.92298911  0.77924655  0.53427869    -0.07330
N575        N  0.92108337  0.79868499  0.56015965    -0.60080
N576        N  0.89759036  0.75712231  0.45869822    -0.05060
N577        N  0.87790956  0.75972441  0.43245690    -0.61150
Mn578      Mn  0.89739402  0.71849374  0.49637082     1.18440
C579        C  0.88998233  0.78653776  0.41649079     0.97150
C580        C  0.89513370  0.78613776  0.57736387     0.97810
N581        N  0.00270938  0.65370917  0.45674484    -0.07350
N582        N  0.01802235  0.62854989  0.44159528    -0.63650
N583        N  0.02337336  0.67862509  0.53096542    -0.06150
N584        N  0.04914112  0.67208884  0.55039438    -0.64330
N585        N  0.00156432  0.65398773  0.53113986    -0.06850
N586        N  0.01295518  0.62986275  0.55036534    -0.63920
N587        N  0.02290966  0.67975012  0.45626762    -0.05750
N588        N  0.05067009  0.67325721  0.44015042    -0.64610
Mn589      Mn  0.95987393  0.65276482  0.49403512     1.10660
C590        C  0.04784466  0.64146259  0.43087641     0.98370
C591        C  0.04252332  0.64179019  0.56264442     0.98450
N592        N  0.00012130  0.77842786  0.53444638    -0.06860
N593        N  0.00134916  0.79407091  0.56309788    -0.62230
N594        N  0.02098181  0.75700733  0.45590339    -0.06180
N595        N  0.03754963  0.75941390  0.42777521    -0.58960
N596        N  0.99804615  0.78024500  0.45766308    -0.07490
N597        N  0.99840649  0.79893488  0.43111819    -0.61800
N598        N  0.02304768  0.75514015  0.53359028    -0.06480
N599        N  0.04038230  0.75450325  0.56159436    -0.58990
Mn600      Mn  0.96061491  0.78072723  0.49625725     1.20190
Mn601      Mn  0.02309062  0.71803654  0.49400390     1.10090
Cl602      Cl  0.96023172  0.71683551  0.49476122    -0.86960
C603        C  0.02662818  0.77900936  0.57991108     0.95380
C604        C  0.02335420  0.78606990  0.41278899     0.95170
C605        C  0.83121191  0.85591077  0.28367213    -0.00430
C606        C  0.85420635  0.82953026  0.28394415    -0.00430
C607        C  0.09073401  0.84685645  0.70552330    -0.00430
C608        C  0.07033060  0.81920280  0.71085246    -0.00430
C609        C  0.85496672  0.08279296  0.70361292    -0.00430
C610        C  0.82545933  0.06517266  0.70763096    -0.00430
C611        C  0.08645644  0.85334536  0.28301109    -0.00430
C612        C  0.05823162  0.83360061  0.28267921    -0.00430
C613        C  0.06332562  0.08097105  0.28600237    -0.00430
C614        C  0.08601549  0.05501147  0.29000321    -0.00430
C615        C  0.06392064  0.08662602  0.70455273    -0.00430
C616        C  0.08156740  0.05669394  0.70533354    -0.00430
C617        C  0.33264013  0.74207659  0.59817672    -0.00430
C618        C  0.36122121  0.73953556  0.61838474    -0.00430
C619        C  0.17758050  0.33239508  0.59912508    -0.00430
C620        C  0.17252205  0.35733147  0.62145431    -0.00430
C621        C  0.74176781  0.33388941  0.40547510    -0.00430
C622        C  0.74297474  0.36235235  0.38671711    -0.00430
C623        C  0.33848501  0.16805775  0.39977520    -0.00430
C624        C  0.36232371  0.17192471  0.37536054    -0.00430
C625        C  0.34492239  0.74447975  0.40459086    -0.00430
C626        C  0.37228208  0.74747015  0.38375809    -0.00430
C627        C  0.17412031  0.33286657  0.39586361    -0.00430
C628        C  0.17554731  0.35350679  0.36872253    -0.00430
C629        C  0.32988016  0.16581316  0.60454769    -0.00430
C630        C  0.35943858  0.16962141  0.62248390    -0.00430
C631        C  0.74511503  0.34824605  0.61455378    -0.00430
C632        C  0.74776000  0.31937923  0.59585784    -0.00430
C633        C  0.25234421  0.07455285  0.09119643    -0.00430
C634        C  0.25167128  0.04854271  0.11339360    -0.00430
C635        C  0.66639202  0.08117619  0.08548540    -0.00430
C636        C  0.66988207  0.05607813  0.10890751    -0.00430
C637        C  0.32893861  0.35575407  0.78130680    -0.00430
C638        C  0.34882864  0.32766112  0.78253893    -0.00430
C639        C  0.55233211  0.34352839  0.78076628    -0.00430
C640        C  0.58359161  0.35800428  0.77995291    -0.00430
C641        C  0.56587774  0.74449876  0.36505246    -0.00430
C642        C  0.58929708  0.74687010  0.39058993    -0.00430
C643        C  0.57437097  0.16694622  0.39247594    -0.00430
C644        C  0.55621749  0.17475013  0.36435591    -0.00430
C645        C  0.58743006  0.55086035  0.78324442    -0.00430
C646        C  0.56210734  0.57413777  0.77980388    -0.00430
C647        C  0.08513303  0.65851863  0.09646796    -0.00430
C648        C  0.06064840  0.66145462  0.12071943    -0.00430
C649        C  0.07776750  0.24462366  0.09254374    -0.00430
C650        C  0.05533441  0.24920073  0.11836690    -0.00430
C651        C  0.33528652  0.55818517  0.78513247    -0.00430
C652        C  0.35922922  0.58346727  0.78376974    -0.00430
C653        C  0.17710865  0.58340460  0.39297373    -0.00430
C654        C  0.17609824  0.55992677  0.36827288    -0.00430
C655        C  0.75127966  0.54721772  0.37765187    -0.00430
C656        C  0.74681442  0.57559308  0.39626594    -0.00430
C657        C  0.74685700  0.56207324  0.62603025    -0.00430
C658        C  0.75126893  0.58523422  0.60135424    -0.00430
C659        C  0.57708699  0.16830896  0.59976740    -0.00430
C660        C  0.55172259  0.16448274  0.62270925    -0.00430
C661        C  0.56693922  0.74051604  0.62257686    -0.00430
C662        C  0.58567381  0.73974882  0.59398875    -0.00430
C663        C  0.16860127  0.57949636  0.59100851    -0.00430
C664        C  0.17336497  0.55312311  0.61240520    -0.00430
C665        C  0.95872518  0.75567874  0.81904634    -0.00430
C666        C  0.96282102  0.78225890  0.79776425    -0.00430
C667        C  0.75620639  0.95861854  0.81910764    -0.00430
C668        C  0.78155841  0.96163952  0.79573638    -0.00430
C669        C  0.78524918  0.75777165  0.99489657    -0.00430
C670        C  0.76284381  0.78413278  0.99762410    -0.00430
C671        C  0.46298896  0.65399997  0.67162669    -0.00430
C672        C  0.46464646  0.62894444  0.69460463    -0.00430
C673        C  0.64286300  0.45070599  0.69282172    -0.00430
C674        C  0.66434577  0.45271371  0.66615864    -0.00430
C675        C  0.63976800  0.65742286  0.49459523    -0.00430
C676        C  0.66620597  0.63546677  0.49230929    -0.00430
C677        C  0.56244180  0.32184971  0.20867626    -0.00430
C678        C  0.58557467  0.34729955  0.20591853    -0.00430
C679        C  0.57794862  0.54766830  0.21167154    -0.00430
C680        C  0.55649840  0.57391918  0.20568302    -0.00430
C681        C  0.33025798  0.56450383  0.20855673    -0.00430
C682        C  0.35488026  0.58813794  0.21405519    -0.00430
C683        C  0.35772558  0.32676981  0.20470711    -0.00430
C684        C  0.33418913  0.35137237  0.20952464    -0.00430
C685        C  0.54847030  0.71117734  0.63810052    -0.07120
C686        C  0.53714845  0.68338436  0.61970879    -0.18240
C687        C  0.51162970  0.66232136  0.63114345     0.10080
C688        C  0.49387137  0.67117328  0.65985087    -0.07040
C689        C  0.50502604  0.69856905  0.67814690    -0.18280
C690        C  0.53496220  0.71454999  0.67031270     0.10110
S691        S  0.50253102  0.62573920  0.60692229    -0.33240
S692        S  0.55531679  0.73750465  0.70315200    -0.33250
H693        H  0.58776799  0.73282833  0.69039993     0.28120
H694        H  0.48355604  0.60906451  0.63064617     0.28120
H695        H  0.54708315  0.67726566  0.59620531     0.18710
H696        H  0.49254842  0.70490630  0.70100746     0.18720
C697        C  0.62339992  0.66793945  0.52654012    -0.07120
C698        C  0.64271002  0.67765109  0.55441180    -0.18240
C699        C  0.62841783  0.69555865  0.58040147     0.10080
C700        C  0.59608376  0.70931744  0.57616055    -0.07040
C701        C  0.57671133  0.69952667  0.54875729    -0.18280
C702        C  0.58872324  0.67626601  0.52627573     0.10110
S703        S  0.65362582  0.70226295  0.61702377    -0.33240
S704        S  0.55899322  0.65990565  0.49651360    -0.33250
H705        H  0.57746551  0.63093184  0.48995954     0.28120
H706        H  0.62620228  0.70706059  0.63816816     0.28120
H707        H  0.66953317  0.67359292  0.55536778     0.18710
H708        H  0.55161723  0.70952408  0.54539905     0.20400
C709        C  0.72598285  0.59559475  0.57476232    -0.07120
C710        C  0.73997472  0.60522557  0.54438157    -0.18240
C711        C  0.72157533  0.62185249  0.52047501     0.10080
C712        C  0.68611268  0.62245848  0.52170045    -0.07040
C713        C  0.67090341  0.60909966  0.55013643    -0.18280
C714        C  0.69053697  0.59989374  0.57813043     0.10110
S715        S  0.74598246  0.64542960  0.49167207    -0.33240
S716        S  0.67038368  0.60012909  0.61789391    -0.33250
H717        H  0.63815629  0.60968025  0.60689733     0.28120
H718        H  0.72733342  0.67438941  0.49736045     0.28120
H719        H  0.76659104  0.60289996  0.53980753     0.18710
H720        H  0.64375409  0.60885886  0.55161244     0.18720
C721        C  0.71606718  0.54273932  0.63461669    -0.07120
C722        C  0.70117917  0.52213914  0.61097479    -0.18240
C723        C  0.68293870  0.49384149  0.62017147     0.10080
C724        C  0.67936600  0.48526555  0.65422790    -0.07040
C725        C  0.69260315  0.50773926  0.67760965    -0.18280
C726        C  0.70847146  0.53706817  0.66819029     0.10110
S727        S  0.66501521  0.47056465  0.58665034    -0.33240
S728        S  0.71873913  0.56639388  0.70036088    -0.33250
H729        H  0.71957878  0.59399452  0.67922592     0.28120
H730        H  0.69449185  0.47143446  0.56754652     0.28120
H731        H  0.70557696  0.52693758  0.58506071     0.18710
H732        H  0.69150250  0.50233550  0.70369978     0.18720
C733        C  0.71504064  0.58704158  0.41180442    -0.07120
C734        C  0.70819504  0.62098289  0.40864388    -0.18240
C735        C  0.69157660  0.63848851  0.43339527     0.10080
C736        C  0.67673773  0.62062059  0.45984200    -0.07040
C737        C  0.67782600  0.58575187  0.45890293    -0.18280
C738        C  0.69828525  0.56884760  0.43646481     0.10110
S739        S  0.69752983  0.68293397  0.43342194    -0.33240
S740        S  0.70597536  0.52523482  0.44281748    -0.33250
H741        H  0.68164976  0.52009843  0.46731354     0.28120
H742        H  0.70219927  0.68639591  0.39918223     0.28120
H743        H  0.72107038  0.63484054  0.38969922     0.18710
H744        H  0.66606981  0.57201787  0.47866273     0.18720
C745        C  0.38324564  0.59214163  0.75619728    -0.07120
C746        C  0.41724014  0.59398976  0.76597049    -0.18240
C747        C  0.44010745  0.61274324  0.74900216     0.10080
C748        C  0.43481424  0.61887416  0.71523503    -0.07040
C749        C  0.40172801  0.61387054  0.70277469    -0.18280
C750        C  0.37516164  0.60469270  0.72416534     0.10110
S751        S  0.47139381  0.63339720  0.77429057    -0.33240
S752        S  0.33276306  0.61014253  0.70878015    -0.33250
H753        H  0.31578280  0.60272479  0.73798890     0.28120
H754        H  0.47370327  0.66169956  0.75435809     0.28120
H755        H  0.42560427  0.58553869  0.78972718     0.18710
H756        H  0.39596130  0.61864857  0.67709507     0.18720
C757        C  0.60397850  0.52874298  0.75697735    -0.07120
C758        C  0.61980618  0.49972158  0.76897392    -0.18240
C759        C  0.63634285  0.47749680  0.74881127     0.10080
C760        C  0.63316622  0.47981905  0.71422733    -0.07040
C761        C  0.61837550  0.50871823  0.70126662    -0.18280
C762        C  0.60700373  0.53439640  0.72222895     0.10110
S763        S  0.66383022  0.44870422  0.76946567    -0.33240
S764        S  0.60633586  0.57462920  0.70362554    -0.33250
H765        H  0.62811860  0.58767550  0.72788977     0.28120
H766        H  0.69087346  0.45712253  0.74921186     0.28120
H767        H  0.62110001  0.49407304  0.79495861     0.18710
H768        H  0.61771733  0.51225495  0.67475653     0.18720
C769        C  0.54678105  0.58531407  0.74793394    -0.07120
C770        C  0.52497093  0.56446183  0.72990021    -0.18240
C771        C  0.50041795  0.57773234  0.70836274     0.10080
C772        C  0.49779710  0.61264552  0.70433126    -0.07040
C773        C  0.52367736  0.63214846  0.71818267    -0.18280
C774        C  0.54807434  0.61908583  0.73916652     0.10110
S775        S  0.47097097  0.54898655  0.68983851    -0.33240
S776        S  0.57856792  0.64798936  0.75567874    -0.33250
H777        H  0.60336991  0.62425771  0.76252405     0.28120
H778        H  0.45757658  0.57079745  0.66620090     0.28120
H779        H  0.52528896  0.53802500  0.73438635     0.18710
H780        H  0.52244967  0.65847887  0.71796092     0.18720
C781        C  0.60421381  0.72056099  0.41395064    -0.07120
C782        C  0.61908013  0.73278667  0.44356009    -0.18240
C783        C  0.63225167  0.71288533  0.46798451     0.10080
C784        C  0.62917818  0.67824949  0.46551233    -0.07040
C785        C  0.61625224  0.66485567  0.43569547    -0.18280
C786        C  0.60638807  0.68562709  0.40896613     0.10110
S787        S  0.65505329  0.73425480  0.50055156    -0.33240
S788        S  0.60345958  0.66739430  0.36835358    -0.33250
H789        H  0.60899097  0.63431118  0.37781827     0.28120
H790        H  0.68006317  0.70996185  0.50400023     0.28120
H791        H  0.62161679  0.75885129  0.44871004     0.18710
H792        H  0.61541955  0.63820943  0.43286210     0.18720
C793        C  0.59724050  0.37346519  0.74900572    -0.07120
C794        C  0.57775346  0.39686856  0.73184446    -0.18240
C795        C  0.59151566  0.41778036  0.70805898     0.10080
C796        C  0.62667951  0.41864658  0.70367561    -0.07040
C797        C  0.64582185  0.39349430  0.71896778    -0.18280
C798        C  0.63136603  0.37044806  0.74036914     0.10110
S799        S  0.56327315  0.44562531  0.68680995    -0.33240
S800        S  0.65851558  0.33963489  0.75824407    -0.33250
H801        H  0.63620984  0.31380136  0.74999255     0.28120
H802        H  0.58462079  0.45123843  0.65982835     0.28120
H803        H  0.55224553  0.40111520  0.73866471     0.18710
H804        H  0.67264602  0.39367204  0.71821038     0.18720
C805        C  0.71438012  0.36552949  0.62772837    -0.07120
C806        C  0.71746627  0.37533858  0.66105516    -0.18240
C807        C  0.70710475  0.40675840  0.67034793     0.10080
C808        C  0.67994611  0.42140726  0.65343079    -0.07040
C809        C  0.66836704  0.40544901  0.62454431    -0.18280
C810        C  0.68926406  0.38220632  0.60863502     0.10110
S811        S  0.73025686  0.42671153  0.70323237    -0.33240
S812        S  0.68583403  0.38086539  0.56416329    -0.33250
H813        H  0.71802015  0.36827994  0.55797428     0.28120
H814        H  0.73585979  0.45567505  0.68493352     0.28120
H815        H  0.73434662  0.36261594  0.67769584     0.18710
H816        H  0.64592882  0.41420808  0.61214626     0.18720
C817        C  0.37961447  0.70931799  0.63062931    -0.07120
C818        C  0.38421462  0.70766888  0.66524332    -0.18240
C819        C  0.41079954  0.68998393  0.67973304     0.10080
C820        C  0.43098321  0.66956696  0.65975981    -0.07040
C821        C  0.42346015  0.66740859  0.62593740    -0.18280
C822        C  0.39931165  0.68770681  0.61085363     0.10110
S823        S  0.42068579  0.69697321  0.72280241    -0.33240
S824        S  0.39785638  0.68491569  0.56648746    -0.33250
H825        H  0.37691893  0.71168761  0.56029189     0.28120
H826        H  0.39224247  0.71608948  0.73052133     0.28120
H827        H  0.36903937  0.72329708  0.68088001     0.18710
H828        H  0.43830782  0.65136205  0.61047187     0.18720
C829        C  0.79500466  0.99489433  0.78279805    -0.07120
C830        C  0.77272135  0.01890722  0.77002399    -0.18240
C831        C  0.78337086  0.04477358  0.74969728     0.10080
C832        C  0.81682888  0.04594925  0.73841048    -0.07040
C833        C  0.83990961  0.02372653  0.75261570    -0.18280
C834        C  0.82982433  0.00025391  0.77626448     0.10110
S835        S  0.75238601  0.07485088  0.73749049    -0.33240
S836        S  0.86321189  0.98039255  0.79883831    -0.33250
H837        H  0.84406481  0.97546921  0.82735074     0.28120
H838        H  0.77337917  0.10148039  0.74661958     0.28120
H839        H  0.74621278  0.01694508  0.77328620     0.18710
H840        H  0.86598656  0.02429950  0.74513929     0.18720
C841        C  0.99797161  0.79256785  0.78642405    -0.07120
C842        C  0.01837571  0.76865762  0.77132296    -0.18240
C843        C  0.04521725  0.77731909  0.75097797     0.10080
C844        C  0.05092322  0.81086722  0.74195337    -0.07040
C845        C  0.03185544  0.83517139  0.75835447    -0.18280
C846        C  0.00665653  0.82647548  0.78127814     0.10110
S847        S  0.07031157  0.74355568  0.73627349    -0.33240
S848        S  0.98362883  0.85987430  0.80015140    -0.33250
H849        H  0.97178803  0.84115650  0.82685598     0.28120
H850        H  0.10030140  0.75808459  0.74789500     0.28120
H851        H  0.01204516  0.74267961  0.77303478     0.18710
H852        H  0.03528496  0.86101717  0.75208665     0.18720
C853        C  0.07841073  0.62358768  0.41846216    -0.07120
C854        C  0.10237844  0.64279639  0.40137902    -0.18240
C855        C  0.13496852  0.63105300  0.39463290     0.10080
C856        C  0.14425051  0.59881763  0.40422442    -0.07040
C857        C  0.12070382  0.57975739  0.42197638    -0.18280
C858        C  0.08806411  0.59144915  0.42869195     0.10110
S859        S  0.16504327  0.65790247  0.37486983    -0.33240
S860        S  0.06071287  0.56480465  0.45178465    -0.33250
H861        H  0.03411415  0.56764698  0.42881659     0.28120
H862        H  0.14309791  0.68463678  0.36914872     0.28120
H863        H  0.09585755  0.66782705  0.39421628     0.18710
H864        H  0.12755496  0.55513055  0.43013220     0.18720
C865        C  0.85107664  0.62515109  0.58202023    -0.07120
C866        C  0.82669945  0.64455335  0.59825960    -0.18240
C867        C  0.79487996  0.63194625  0.60621136     0.10080
C868        C  0.78653578  0.59912796  0.59738306    -0.07040
C869        C  0.81149721  0.57926012  0.58269446    -0.18280
C870        C  0.84379700  0.59138793  0.57619667     0.10110
S871        S  0.76541171  0.65971766  0.62554065    -0.33240
S872        S  0.87349971  0.56296461  0.55849864    -0.33250
H873        H  0.89997444  0.57317818  0.57947224     0.28120
H874        H  0.74534341  0.63533141  0.64029688     0.28120
H875        H  0.83183347  0.67046251  0.60331917     0.18710
H876        H  0.80555736  0.55423324  0.57526936     0.18720
C877        C  0.06969353  0.62236046  0.57883574    -0.07120
C878        C  0.09566078  0.64061198  0.59428400    -0.18240
C879        C  0.12746690  0.62691783  0.59995095     0.10080
C880        C  0.13394117  0.59417888  0.58952481    -0.07040
C881        C  0.10708447  0.57487494  0.57710739    -0.18280
C882        C  0.07497510  0.58832208  0.57240960     0.10110
S883        S  0.15913538  0.65320385  0.61863291    -0.33240
S884        S  0.04296951  0.56132917  0.55580659    -0.33250
H885        H  0.01831568  0.57244061  0.57797505     0.28120
H886        H  0.17905730  0.62773472  0.63202344     0.28120
H887        H  0.09180050  0.66654817  0.60016478     0.18710
H888        H  0.11161836  0.54947468  0.56968718     0.18720
C889        C  0.84150081  0.62310240  0.42147263    -0.07120
C890        C  0.82788469  0.62738213  0.38966573    -0.18240
C891        C  0.79582514  0.61505872  0.38118425     0.10080
C892        C  0.77708921  0.59700468  0.40488562    -0.07040
C893        C  0.78930843  0.59586613  0.43744418    -0.18280
C894        C  0.82117849  0.60826137  0.44584907     0.10110
S895        S  0.78001528  0.62486240  0.34038770    -0.33240
S896        S  0.83374421  0.60595177  0.48860809    -0.33250
H897        H  0.86701475  0.59642589  0.48218090     0.28120
H898        H  0.74804345  0.61042901  0.34312943     0.28120
H899        H  0.84187986  0.64144047  0.37158702     0.18710
H900        H  0.77465745  0.58340973  0.45617659     0.18720
C901        C  0.03139573  0.79799365  0.37926993    -0.07120
C902        C  0.04363804  0.77561906  0.35559805    -0.18240
C903        C  0.05124328  0.78607600  0.32347085     0.10080
C904        C  0.04605791  0.81954965  0.31455154    -0.07040
C905        C  0.03309350  0.84148952  0.33811983    -0.18280
C906        C  0.02607225  0.83133604  0.37010142     0.10110
S907        S  0.06851860  0.75585074  0.29555190    -0.33240
S908        S  0.01332489  0.86301062  0.39873996    -0.33250
H909        H  0.97933073  0.85334967  0.39679868     0.28120
H910        H  0.09119394  0.77756729  0.28032929     0.28120
H911        H  0.04762225  0.74990610  0.36221742     0.18710
H912        H  0.03009214  0.86739131  0.33222446     0.18720
C913        C  0.03609877  0.78590907  0.61500793    -0.07120
C914        C  0.06682479  0.77365889  0.62738194    -0.18240
C915        C  0.07805633  0.78097861  0.65958960     0.10080
C916        C  0.05779426  0.80096051  0.68048695    -0.07040
C917        C  0.02578024  0.80996112  0.66916299    -0.18280
C918        C  0.01505381  0.80352219  0.63685176     0.10110
S919        S  0.11837254  0.76394187  0.67149340    -0.33240
S920        S  0.97459527  0.81941037  0.62507768    -0.33250
H921        H  0.98861950  0.84365757  0.60435995     0.28120
H922        H  0.12244554  0.78160694  0.70107136     0.28120
H923        H  0.08288749  0.75908994  0.61147851     0.18710
H924        H  0.01019115  0.82486829  0.68492942     0.18720
C925        C  0.87849886  0.79792090  0.38346757    -0.07120
C926        C  0.89809003  0.82200877  0.36768103    -0.18240
C927        C  0.89071889  0.83236381  0.33558784     0.10080
C928        C  0.86316438  0.81832115  0.31836837    -0.07040
C929        C  0.84408548  0.79356024  0.33357207    -0.18280
C930        C  0.85048486  0.78421043  0.36627737     0.10110
S931        S  0.91749510  0.86254948  0.31631396    -0.33240
S932        S  0.82106198  0.75583881  0.38457039    -0.33250
H933        H  0.81738173  0.77501937  0.41340257     0.28120
H934        H  0.94266964  0.86354487  0.34092667     0.28120
H935        H  0.91960431  0.83263156  0.38037501     0.18710
H936        H  0.82355962  0.78202013  0.32013518     0.18720
C937        C  0.89117743  0.83317397  0.73227467    -0.07120
C938        C  0.87904943  0.82220095  0.76317310    -0.18240
C939        C  0.90161624  0.80832379  0.78709938     0.10080
C940        C  0.93430453  0.79734195  0.77701790    -0.07040
C941        C  0.94280278  0.80367706  0.74408243    -0.18280
C942        C  0.92521134  0.82647644  0.72567809     0.10110
S943        S  0.88808115  0.80921184  0.82938566    -0.33240
S944        S  0.95069174  0.85230710  0.70028761    -0.33250
H945        H  0.94175121  0.88113168  0.71770827     0.28120
H946        H  0.92064122  0.81088376  0.84307744     0.28120
H947        H  0.85321851  0.82719319  0.76978312     0.18710
H948        H  0.96644791  0.79541916  0.73394028     0.18720
C949        C  0.82610579  0.88618694  0.73348716    -0.07120
C950        C  0.79346717  0.89880753  0.72719116    -0.18240
C951        C  0.78111828  0.92575196  0.74453718     0.10080
C952        C  0.79341332  0.93209015  0.77669619    -0.07040
C953        C  0.82235194  0.91469666  0.78691686    -0.18280
C954        C  0.84169152  0.89688790  0.76355441     0.10110
S955        S  0.75471375  0.95363741  0.72078554    -0.33240
S956        S  0.88678607  0.89853058  0.76877156    -0.33250
H957        H  0.88694578  0.90445703  0.80302811     0.28120
H958        H  0.73766664  0.96818079  0.74701400     0.28120
H959        H  0.77941435  0.89199701  0.70524264     0.18710
H960        H  0.83287189  0.92005275  0.81103975     0.18720
C961        C  0.87827312  0.83110334  0.67140689    -0.07120
C962        C  0.86962643  0.79757184  0.66682216    -0.18240
C963        C  0.87264623  0.78220182  0.63595351     0.10080
C964        C  0.88490345  0.80066443  0.60904875    -0.07040
C965        C  0.89282707  0.83414141  0.61352056    -0.18280
C966        C  0.89091638  0.84931386  0.64414575     0.10110
S967        S  0.86168425  0.73904292  0.63287220    -0.33240
S968        S  0.90701717  0.89121128  0.64552039    -0.33250
H969        H  0.90178526  0.89693423  0.67912352     0.28120
H970        H  0.83840254  0.74426978  0.60703414     0.28120
H971        H  0.85967274  0.78352006  0.68733983     0.18710
H972        H  0.90236927  0.84852805  0.59302216     0.18720
C973        C  0.62049059  0.84658923  0.41178539    -0.07120
C974        C  0.59153476  0.83358258  0.42649594    -0.18240
C975        C  0.58165170  0.80114395  0.42123486     0.10080
C976        C  0.59983705  0.78139859  0.39866472    -0.07040
C977        C  0.62857561  0.79418785  0.38355280    -0.18280
C978        C  0.63927147  0.82651635  0.38993793     0.10110
S979        S  0.54649788  0.78674732  0.44539847    -0.33240
S980        S  0.67722161  0.83986748  0.37002206    -0.33250
H981        H  0.69438882  0.84484794  0.40018922     0.28120
H982        H  0.55852939  0.75487320  0.45150224     0.28120
H983        H  0.57689193  0.84835422  0.44350564     0.18710
H984        H  0.64300168  0.77864461  0.36706792     0.18720
C985        C  0.61418131  0.07245747  0.56871352    -0.07120
C986        C  0.62898146  0.08793943  0.59645887    -0.18240
C987        C  0.61954474  0.12002017  0.60641082     0.10080
C988        C  0.59553048  0.13789519  0.58739297    -0.07040
C989        C  0.58399460  0.12399206  0.55770131    -0.18280
C990        C  0.59097068  0.09104069  0.54942478     0.10110
S991        S  0.63919207  0.13607839  0.64357562    -0.33240
S992        S  0.56614090  0.07346891  0.51630852    -0.33250
H993        H  0.55262973  0.04854654  0.53657679     0.28120
H994        H  0.62091217  0.16563616  0.64639798     0.28120
H995        H  0.64728612  0.07457523  0.61124873     0.18710
H996        H  0.56600774  0.13768889  0.54284972     0.18720
C997        C  0.58771493  0.13278753  0.39711282    -0.07120
C998        C  0.62262834  0.12919168  0.40081611    -0.18240
C999        C  0.63650913  0.09920690  0.41097354     0.10080
C1000       C  0.61512841  0.07187019  0.41638440    -0.07040
C1001       C  0.58054636  0.07476657  0.41096829    -0.18280
C1002       C  0.56639700  0.10489433  0.40152797     0.10110
S1003       S  0.68106489  0.09843896  0.41953860    -0.33240
S1004       S  0.52110928  0.10778225  0.39975740    -0.33250
H1005       H  0.51452462  0.07355483  0.39804521     0.28120
H1006       H  0.67842680  0.07967647  0.44865904     0.28120
H1007       H  0.63891713  0.15050666  0.39766865     0.18710
H1008       H  0.56445482  0.05357497  0.41538943     0.18720
C1009       C  0.61765412  0.83533373  0.55863435    -0.07120
C1010       C  0.58369192  0.82606388  0.55540725    -0.18240
C1011       C  0.57287954  0.79412922  0.56430959     0.10080
C1012       C  0.59637431  0.77135363  0.57751510    -0.07040
C1013       C  0.63068411  0.77942338  0.57661518    -0.18280
C1014       C  0.64144986  0.81107487  0.56780125     0.10110
S1015       S  0.52943424  0.78230196  0.55809407    -0.33240
S1016       S  0.68598603  0.81874851  0.56768613    -0.33250
H1017       H  0.68501861  0.83507384  0.59842969     0.28120
H1018       H  0.51830041  0.81278527  0.54527963     0.28120
H1019       H  0.56556360  0.84407952  0.54663683     0.18710
H1020       H  0.64933615  0.76175205  0.58463988     0.18720
C1021       C  0.79496560  0.88374079  0.38204118    -0.07120
C1022       C  0.77737062  0.86033519  0.36270913    -0.18240
C1023       C  0.78777418  0.85111187  0.33089380     0.10080
C1024       C  0.81616312  0.86678948  0.31655387    -0.07040
C1025       C  0.83389925  0.89019428  0.33598041    -0.18280
C1026       C  0.82441447  0.89783118  0.36865809     0.10110
S1027       S  0.76300371  0.81918120  0.31076109    -0.33240
S1028       S  0.85047848  0.92614276  0.39177691    -0.33250
H1029       H  0.84998917  0.90688764  0.42067856     0.28120
H1030       H  0.78482344  0.81186009  0.28470820     0.28120
H1031       H  0.75460732  0.84939670  0.37241746     0.18710
H1032       H  0.85612541  0.90182853  0.32595599     0.18720
C1033       C  0.77906661  0.03739757  0.61458843    -0.07120
C1034       C  0.78031279  0.07102436  0.62312279    -0.18240
C1035       C  0.79064774  0.08118718  0.65491808     0.10080
C1036       C  0.80379815  0.05734319  0.67759633    -0.07040
C1037       C  0.79946427  0.02374351  0.66973899    -0.18280
C1038       C  0.78564177  0.01378146  0.63955246     0.10110
S1039       S  0.78469793  0.12436497  0.66480002    -0.33240
S1040       S  0.77244414  0.97121683  0.63631843    -0.33250
H1041       H  0.77872229  0.96775747  0.60246616     0.28120
H1042       H  0.79309572  0.12193403  0.69825094     0.28120
H1043       H  0.77134741  0.08933092  0.60560031     0.18710
H1044       H  0.80687309  0.00487031  0.68732256     0.18720
C1045       C  0.82589022  0.87497202  0.67104059    -0.07120
C1046       C  0.80618380  0.84961707  0.65662186    -0.18240
C1047       C  0.79120150  0.85335175  0.62533525     0.10080
C1048       C  0.79646740  0.88271969  0.60725070    -0.07040
C1049       C  0.81723596  0.90733750  0.62101670    -0.18280
C1050       C  0.82948838  0.90516313  0.65354956     0.10110
S1051       S  0.76614115  0.81953108  0.60962621    -0.33240
S1052       S  0.84756174  0.94268718  0.67101971    -0.33250
H1053       H  0.85996130  0.93030288  0.70092876     0.28120
H1054       H  0.76949070  0.82764895  0.57605145     0.28120
H1055       H  0.80237682  0.82673444  0.67004815     0.18710
H1056       H  0.82168658  0.92985030  0.60725801     0.18720
C1057       C  0.81523335  0.04683931  0.32382203    -0.07120
C1058       C  0.79823658  0.07206587  0.34111273    -0.18240
C1059       C  0.78879549  0.06818886  0.37397396     0.10080
C1060       C  0.79435256  0.03773360  0.38984263    -0.07040
C1061       C  0.80951284  0.01178623  0.37222155    -0.18280
C1062       C  0.81994238  0.01584976  0.33948038     0.10110
S1063       S  0.76900243  0.10277996  0.39421982    -0.33240
S1064       S  0.83709666  0.97993629  0.31891213    -0.33250
H1065       H  0.85784221  0.99661198  0.29662815     0.28120
H1066       H  0.77730567  0.09296243  0.42659269     0.28120
H1067       H  0.79307275  0.09540860  0.32894384     0.18710
H1068       H  0.81141648  0.98753869  0.38348595     0.18720
C1069       C  0.83721982  0.28873365  0.42535677    -0.07120
C1070       C  0.82572566  0.29039279  0.39260664    -0.18240
C1071       C  0.79299235  0.30114567  0.38541100     0.10080
C1072       C  0.77272727  0.31359625  0.41129225    -0.07040
C1073       C  0.78272710  0.30749674  0.44403474    -0.18280
C1074       C  0.81424273  0.29398676  0.45108291     0.10110
S1075       S  0.77828633  0.29684970  0.34335613    -0.33240
S1076       S  0.82294046  0.28159823  0.49282687    -0.33250
H1077       H  0.84359135  0.25457116  0.48460561     0.28120
H1078       H  0.74383398  0.29819837  0.35058337     0.28120
H1079       H  0.84227620  0.28345431  0.37262003     0.18710
H1080       H  0.76629331  0.31392823  0.46426716     0.18720
C1081       C  0.08504547  0.29158308  0.56211519    -0.07120
C1082       C  0.09755221  0.28065459  0.59277294    -0.18240
C1083       C  0.12879911  0.29120176  0.60483371     0.10080
C1084       C  0.14787345  0.31376805  0.58589617    -0.07040
C1085       C  0.13706641  0.32174733  0.55395721    -0.18280
C1086       C  0.10597219  0.31113078  0.54193931     0.10110
S1087       S  0.14211883  0.27461327  0.64426074    -0.33240
S1088       S  0.09492022  0.32357153  0.50079035    -0.33250
H1089       H  0.08522266  0.29139109  0.49113609     0.28120
H1090       H  0.17189684  0.29272318  0.64834690     0.28120
H1091       H  0.08247755  0.26449338  0.60805479     0.18710
H1092       H  0.15241222  0.33775594  0.53873837     0.18720
C1093       C  0.85169981  0.30128965  0.57519233    -0.07120
C1094       C  0.83593110  0.28299665  0.60022224    -0.18240
C1095       C  0.80200525  0.28762531  0.60747474     0.10080
C1096       C  0.78300018  0.31007471  0.58812219    -0.07040
C1097       C  0.79876351  0.32845275  0.56340495    -0.18280
C1098       C  0.83327891  0.32615016  0.55832074     0.10110
S1099       S  0.78461556  0.26306348  0.64054707    -0.33240
S1100       S  0.85274596  0.35564735  0.53069904    -0.33250
H1101       H  0.82313632  0.37126731  0.51958178     0.28120
H1102       H  0.75057818  0.27101369  0.63575568     0.28120
H1103       H  0.84987580  0.26437235  0.61384565     0.18710
H1104       H  0.78393273  0.34589663  0.54921247     0.18720
C1105       C  0.07436718  0.29545582  0.41408230    -0.07120
C1106       C  0.08227324  0.32858846  0.42107651    -0.18240
C1107       C  0.11483713  0.34056086  0.41815298     0.10080
C1108       C  0.13990369  0.31984686  0.40454697    -0.07040
C1109       C  0.13212504  0.28673968  0.39700689    -0.18280
C1110       C  0.09973868  0.27416592  0.40203881     0.10110
S1111       S  0.12249983  0.38193454  0.43374581    -0.33240
S1112       S  0.09299679  0.23080369  0.39378654    -0.33250
H1113       H  0.07854097  0.22455866  0.42477400     0.28120
H1114       H  0.15763840  0.38006724  0.43625462     0.28120
H1115       H  0.06320838  0.34505018  0.43079779     0.18710
H1116       H  0.15143000  0.27074446  0.38700832     0.18720
C1117       C  0.87312557  0.12370075  0.38800267    -0.07120
C1118       C  0.88543967  0.09162222  0.38268148    -0.18240
C1119       C  0.88220095  0.07619468  0.35177887     0.10080
C1120       C  0.86572423  0.09312967  0.32546051    -0.07040
C1121       C  0.85311940  0.12501622  0.33104051    -0.18280
C1122       C  0.85539579  0.13980501  0.36216956     0.10110
S1123       S  0.90155409  0.03592948  0.34753404    -0.33240
S1124       S  0.83497342  0.17937862  0.36743848    -0.33250
H1125       H  0.82978437  0.17582108  0.40159487     0.28120
H1126       H  0.90067260  0.03374852  0.31298962     0.28120
H1127       H  0.89977470  0.07936490  0.40197448     0.18710
H1128       H  0.83984605  0.13775820  0.31132050     0.18720
C1129       C  0.05680736  0.09979138  0.67022046    -0.07120
C1130       C  0.02925046  0.08675295  0.65247909    -0.18240
C1131       C  0.02109085  0.09782409  0.62061473     0.10080
C1132       C  0.04106237  0.12243677  0.60555010    -0.07040
C1133       C  0.06869300  0.13539061  0.62320645    -0.18280
C1134       C  0.07663893  0.12476207  0.65528290     0.10110
S1135       S  0.98308539  0.08187725  0.60188279    -0.33240
S1136       S  0.11061918  0.14627977  0.67626484    -0.33250
H1137       H  0.11027161  0.12922029  0.70639047     0.28120
H1138       H  0.96966885  0.11332681  0.59469606     0.28120
H1139       H  0.01296324  0.06889650  0.66417289     0.18710
H1140       H  0.08316414  0.15543262  0.61254552     0.18720
C1141       C  0.86173742  0.09949801  0.67091443    -0.07120
C1142       C  0.86566255  0.08029933  0.64193724    -0.18240
C1143       C  0.87381154  0.09474918  0.61149063     0.10080
C1144       C  0.87957108  0.12927793  0.60970930    -0.07040
C1145       C  0.87470341  0.14836714  0.63852623    -0.18280
C1146       C  0.86631769  0.13416267  0.66876546     0.10110
S1147       S  0.87703824  0.06758204  0.57639959    -0.33240
S1148       S  0.86249663  0.16218192  0.70350966    -0.33250
H1149       H  0.84151269  0.14251085  0.72308173     0.28120
H1150       H  0.85819759  0.08852737  0.55556452     0.28120
H1151       H  0.86280609  0.05363188  0.64319388     0.18710
H1152       H  0.87840894  0.17496027  0.63798207     0.18720
C1153       C  0.05210521  0.09883831  0.31674738    -0.07120
C1154       C  0.02388683  0.08619061  0.33319374    -0.18240
C1155       C  0.01561554  0.09665920  0.36515186     0.10080
C1156       C  0.03511516  0.12138162  0.38097027    -0.07040
C1157       C  0.06240726  0.13507014  0.36400126    -0.18280
C1158       C  0.07131550  0.12419253  0.33239850     0.10110
S1159       S  0.97862815  0.07920452  0.38359092    -0.33240
S1160       S  0.10691179  0.14482545  0.31397881    -0.33250
H1161       H  0.11234657  0.12268113  0.28793037     0.28120
H1162       H  0.99486205  0.07223786  0.41376508     0.28120
H1163       H  0.00866180  0.06726027  0.32130245     0.18710
H1164       H  0.07645343  0.15526884  0.37522549     0.18720
C1165       C  0.30271113  0.84290194  0.57876973    -0.07120
C1166       C  0.32828133  0.82800747  0.56035376    -0.18240
C1167       C  0.33798115  0.79552344  0.56626838     0.10080
C1168       C  0.32179631  0.77683499  0.59077130    -0.07040
C1169       C  0.29651027  0.79161715  0.60963660    -0.18280
C1170       C  0.28814605  0.82497719  0.60512626     0.10110
S1171       S  0.37100802  0.77889931  0.54159586    -0.33240
S1172       S  0.26113356  0.84352329  0.63542349    -0.33250
H1173       H  0.27938057  0.87338888  0.63711925     0.28120
H1174       H  0.35086216  0.75331685  0.52856932     0.28120
H1175       H  0.34037510  0.84135634  0.54051136     0.18710
H1176       H  0.28473233  0.77760840  0.62920929     0.18720
C1177       C  0.32615605  0.13399933  0.40862014    -0.07120
C1178       C  0.29550350  0.12308254  0.39511130    -0.18240
C1179       C  0.28341726  0.09107309  0.40075039     0.10080
C1180       C  0.30199838  0.06893293  0.42080271    -0.07040
C1181       C  0.33349499  0.07930251  0.43288339    -0.18280
C1182       C  0.34545877  0.11156870  0.42773489     0.10110
S1183       S  0.24451983  0.08014043  0.38096706    -0.33240
S1184       S  0.38485199  0.12359104  0.44665389    -0.33250
H1185       H  0.39344603  0.09260676  0.46011090     0.28120
H1186       H  0.22886790  0.07373029  0.41135766     0.28120
H1187       H  0.28111860  0.13927853  0.37921738     0.18710
H1188       H  0.34860527  0.06213551  0.44711972     0.18720
C1189       C  0.32015909  0.13092272  0.59729033    -0.07120
C1190       C  0.32919350  0.11862164  0.56635844    -0.18240
C1191       C  0.31897226  0.08760238  0.55583236     0.10080
C1192       C  0.30016002  0.06710216  0.57713764    -0.07040
C1193       C  0.29166248  0.07896696  0.60861821    -0.18280
C1194       C  0.30089166  0.11092868  0.61879392     0.10110
S1195       S  0.32771430  0.07808826  0.51346507    -0.33240
S1196       S  0.28431890  0.12536028  0.65766241    -0.33250
H1197       H  0.29105128  0.15925439  0.65363188     0.28120
H1198       H  0.29371500  0.07171768  0.50568340     0.28120
H1199       H  0.34160473  0.13464796  0.54885031     0.18710
H1200       H  0.27675372  0.06372330  0.62495127     0.18720
C1201       C  0.29980985  0.83904029  0.42688739    -0.07120
C1202       C  0.32701482  0.82724042  0.44578886    -0.18240
C1203       C  0.34156242  0.79656659  0.43978689     0.10080
C1204       C  0.32742938  0.77539130  0.41557504    -0.07040
C1205       C  0.29897421  0.78641983  0.39778977    -0.18280
C1206       C  0.28574511  0.81821123  0.40232242     0.10110
S1207       S  0.37940820  0.78810662  0.46286853    -0.33240
S1208       S  0.25263629  0.83099420  0.37452261    -0.33250
H1209       H  0.26984228  0.85973145  0.36451693     0.28120
H1210       H  0.39236775  0.76335170  0.44314705     0.28120
H1211       H  0.33834838  0.84266347  0.46479967     0.18710
H1212       H  0.28891556  0.77173427  0.37778769     0.18720
C1213       C  0.09667435  0.04824356  0.32538873    -0.07120
C1214       C  0.12423765  0.06575991  0.33828642    -0.18240
C1215       C  0.13387829  0.06243580  0.37133817     0.10080
C1216       C  0.11973889  0.03726663  0.39079669    -0.07040
C1217       C  0.09134479  0.02038064  0.37869994    -0.18280
C1218       C  0.07899990  0.02632275  0.34662942     0.10110
S1219       S  0.16238593  0.09264756  0.38832608    -0.33240
S1220       S  0.04177703  0.00390992  0.33409948    -0.33250
H1221       H  0.05052398  0.00048177  0.30088543     0.28120
H1222       H  0.15497133  0.08627720  0.42163597     0.28120
H1223       H  0.13768916  0.08298120  0.32282762     0.18710
H1224       H  0.07998545  0.00104549  0.39344298     0.18720
C1225       C  0.12503336  0.86616121  0.60533903    -0.07120
C1226       C  0.09344484  0.87797181  0.61515500    -0.18240
C1227       C  0.08094072  0.87138855  0.64697448     0.10080
C1228       C  0.10099225  0.85318792  0.67000858    -0.07040
C1229       C  0.13225592  0.84130177  0.65970119    -0.18280
C1230       C  0.14312934  0.84551318  0.62724968     0.10110
S1231       S  0.04129046  0.89053622  0.65738481    -0.33240
S1232       S  0.18043272  0.82364067  0.61490273    -0.33250
H1233       H  0.17297529  0.82383696  0.58086436     0.28120
H1234       H  0.04093653  0.88342377  0.69124194     0.28120
H1235       H  0.07954621  0.89443810  0.59894150     0.18710
H1236       H  0.14818829  0.82805648  0.67698146     0.18720
C1237       C  0.09641029  0.04452309  0.67318217    -0.07120
C1238       C  0.12422841  0.06181900  0.66074696    -0.18240
C1239       C  0.13634568  0.05604872  0.62898346     0.10080
C1240       C  0.12167046  0.03106330  0.60907147    -0.07040
C1241       C  0.09453876  0.01286883  0.62160457    -0.18280
C1242       C  0.08174906  0.01930390  0.65325188     0.10110
S1243       S  0.17112011  0.08125261  0.61537469    -0.33240
S1244       S  0.04841171  0.99288065  0.66722667    -0.33250
H1245       H  0.02959608  0.01866589  0.68071699     0.28120
H1246       H  0.16348612  0.07884839  0.58145823     0.28120
H1247       H  0.13611780  0.08082849  0.67565038     0.18710
H1248       H  0.08431530  0.99238426  0.60733952     0.18720
C1249       C  0.12502000  0.87553028  0.38171057    -0.07120
C1250       C  0.10830098  0.89989133  0.36323719    -0.18240
C1251       C  0.09701119  0.89383632  0.33088038     0.10080
C1252       C  0.10234886  0.86247733  0.31592699    -0.07040
C1253       C  0.11921440  0.83804481  0.33455801    -0.18280
C1254       C  0.13075945  0.84431193  0.36693345     0.10110
S1255       S  0.07583441  0.92743113  0.31040081    -0.33240
S1256       S  0.15335464  0.81173975  0.38789537    -0.33250
H1257       H  0.14662687  0.82279632  0.42012838     0.28120
H1258       H  0.05052633  0.90787357  0.29636536     0.28120
H1259       H  0.10509191  0.92443036  0.37372653     0.18710
H1260       H  0.12307672  0.81371660  0.32392755     0.18720
C1261       C  0.39185523  0.84693063  0.34642477    -0.07120
C1262       C  0.41544305  0.83100134  0.36690313    -0.18240
C1263       C  0.41057102  0.79863627  0.37834162     0.10080
C1264       C  0.38038195  0.78172682  0.37074549    -0.07040
C1265       C  0.35705860  0.79729380  0.34961704    -0.18280
C1266       C  0.36201150  0.82958952  0.33815608     0.10110
S1267       S  0.44426553  0.78017945  0.40163014    -0.33240
S1268       S  0.32900635  0.84719398  0.31358198    -0.33250
H1269       H  0.35060094  0.84777171  0.28646183     0.28120
H1270       H  0.44818618  0.75361293  0.37950949     0.28120
H1271       H  0.43845090  0.84358610  0.37329717     0.18710
H1272       H  0.33473002  0.78394738  0.34177833     0.18720
C1273       C  0.54006073  0.08310080  0.31643261    -0.07120
C1274       C  0.51364233  0.10601299  0.31681762    -0.18240
C1275       C  0.51941603  0.13927383  0.32508655     0.10080
C1276       C  0.55167892  0.14932097  0.33653984    -0.07040
C1277       C  0.57883495  0.12855820  0.32796398    -0.18280
C1278       C  0.57336648  0.09510548  0.31957336     0.10110
S1279       S  0.48543659  0.16744502  0.31783801    -0.33240
S1280       S  0.60955191  0.06835251  0.31766200    -0.33250
H1281       H  0.59461857  0.04209523  0.33505300     0.28120
H1282       H  0.50619270  0.19070190  0.30214051     0.28120
H1283       H  0.48831726  0.09794824  0.31069079     0.18710
H1284       H  0.60433818  0.13680125  0.33287866     0.18720
C1285       C  0.38902268  0.07761641  0.33177565    -0.07120
C1286       C  0.41338820  0.09677706  0.34830266    -0.18240
C1287       C  0.40577780  0.12770132  0.36158029     0.10080
C1288       C  0.37318586  0.14087749  0.35771775    -0.07040
C1289       C  0.34966008  0.12325413  0.33826554    -0.18280
C1290       C  0.35670089  0.09133607  0.32642318     0.10110
S1291       S  0.43901338  0.14816348  0.38373810    -0.33240
S1292       S  0.32263896  0.06876482  0.30727553    -0.33250
H1293       H  0.32825358  0.03990057  0.32597534     0.28120
H1294       H  0.41907078  0.16621180  0.40534739     0.28120
H1295       H  0.43861768  0.08719527  0.35189906     0.18710
H1296       H  0.32488668  0.13365132  0.33406373     0.18720
C1297       C  0.54015740  0.84385657  0.33561646    -0.07120
C1298       C  0.56373629  0.82607732  0.31685685    -0.18240
C1299       C  0.57195293  0.79307212  0.32426428     0.10080
C1300       C  0.55385206  0.77618367  0.34914557    -0.07040
C1301       C  0.52803354  0.79306108  0.36542118    -0.18280
C1302       C  0.52370107  0.82721053  0.36154712     0.10110
S1303       S  0.60654172  0.77508359  0.30177144    -0.33240
S1304       S  0.50246243  0.84870228  0.39432399    -0.33250
H1305       H  0.52700310  0.87378029  0.39697059     0.28120
H1306       H  0.61206656  0.74721403  0.32173606     0.28120
H1307       H  0.57717227  0.83844499  0.29728081     0.18710
H1308       H  0.51465613  0.78047428  0.38483950     0.18720
C1309       C  0.57511583  0.02914293  0.15469723    -0.07120
C1310       C  0.59156565  0.00627347  0.13428398    -0.18240
C1311       C  0.62299149  0.01344144  0.12030784     0.10080
C1312       C  0.63868051  0.04445958  0.12676977    -0.07040
C1313       C  0.62236718  0.06672474  0.14818469    -0.18280
C1314       C  0.59096118  0.05961240  0.16177510     0.10110
S1315       S  0.64144921  0.98142202  0.09511922    -0.33240
S1316       S  0.57245121  0.09039239  0.18839820    -0.33250
H1317       H  0.53884363  0.08098035  0.18250705     0.28120
H1318       H  0.65786588  0.00251461  0.07312567     0.28120
H1319       H  0.58043275  0.98204627  0.13021582     0.18710
H1320       H  0.63363097  0.09058085  0.15348270     0.18720
C1321       C  0.28486370  0.03923697  0.12958615    -0.07120
C1322       C  0.29511495  0.05657373  0.15813863    -0.18240
C1323       C  0.32691118  0.05239373  0.17229408     0.10080
C1324       C  0.34962882  0.02956300  0.15847712    -0.07040
C1325       C  0.34057901  0.01329276  0.12904260    -0.18280
C1326       C  0.30869107  0.01796099  0.11442007     0.10110
S1327       S  0.33705957  0.07728241  0.20815837    -0.33240
S1328       S  0.30051026  0.99637534  0.07624013    -0.33250
H1329       H  0.26621004  0.99233877  0.08208283     0.28120
H1330       H  0.37197167  0.07795749  0.20273135     0.28120
H1331       H  0.27883579  0.07451131  0.16941215     0.18710
H1332       H  0.35772833  0.99552343  0.11825938     0.18720
C1333       C  0.70269835  0.81444241  0.08175353    -0.07120
C1334       C  0.71956479  0.83833537  0.06272547    -0.18240
C1335       C  0.74322162  0.82908948  0.03850457     0.10080
C1336       C  0.74896972  0.79506662  0.03102245    -0.07040
C1337       C  0.73252132  0.77156507  0.05067027    -0.18280
C1338       C  0.71139471  0.78071286  0.07647179     0.10110
S1339       S  0.76337922  0.86185759  0.01596183    -0.33240
S1340       S  0.69640714  0.74732673  0.10149668    -0.33250
H1341       H  0.71156173  0.76066159  0.13009572     0.28120
H1342       H  0.79301017  0.84378501  0.01043077     0.28120
H1343       H  0.71347752  0.86429913  0.06579805     0.18710
H1344       H  0.73410353  0.74549789  0.04473645     0.18720
C1345       C  0.63532604  0.85762572  0.13730047    -0.07120
C1346       C  0.63027773  0.84790062  0.16999873    -0.18240
C1347       C  0.59902409  0.85136515  0.18494807     0.10080
C1348       C  0.57265416  0.86788507  0.16813175    -0.07040
C1349       C  0.57746302  0.87769902  0.13529650    -0.18280
C1350       C  0.60850255  0.87314590  0.11973907     0.10110
S1351       S  0.59457278  0.83457053  0.22592078    -0.33240
S1352       S  0.61291108  0.89162085  0.07931192    -0.33250
H1353       H  0.64777887  0.88792244  0.07581571     0.28120
H1354       H  0.55955965  0.82971890  0.22366344     0.28120
H1355       H  0.65082327  0.83692382  0.18389044     0.18710
H1356       H  0.55793306  0.89153122  0.12258258     0.18720
C1357       C  0.34961798  0.87108309  0.16814376    -0.07120
C1358       C  0.34848478  0.87407371  0.13355639    -0.18240
C1359       C  0.31858958  0.86798573  0.11557335     0.10080
C1360       C  0.28870771  0.85922180  0.13284878    -0.07040
C1361       C  0.29035934  0.85594086  0.16711759    -0.18280
C1362       C  0.32044417  0.85972175  0.18437710     0.10110
S1363       S  0.31981997  0.87661961  0.07177829    -0.33240
S1364       S  0.31973421  0.84795477  0.22697570    -0.33250
H1365       H  0.35299345  0.83598586  0.22709227     0.28120
H1366       H  0.28522847  0.87396997  0.06509133     0.28120
H1367       H  0.37037813  0.88312345  0.12059829     0.18710
H1368       H  0.26795027  0.84894464  0.18053839     0.18720
C1369       C  0.55433736  0.58648362  0.17088089    -0.07120
C1370       C  0.54342916  0.56435586  0.14617849    -0.18240
C1371       C  0.54065563  0.57378639  0.11339295     0.10080
C1372       C  0.54561323  0.60726473  0.10509517    -0.07040
C1373       C  0.55718721  0.62967204  0.12929783    -0.18280
C1374       C  0.56226869  0.61941641  0.16204680     0.10110
S1375       S  0.53086720  0.54248750  0.08264148    -0.33240
S1376       S  0.57765815  0.64955988  0.19144161    -0.33250
H1377       H  0.59392072  0.62675330  0.21234678     0.28120
H1378       H  0.53427205  0.51471893  0.10336480     0.28120
H1379       H  0.53596568  0.53965335  0.15282467     0.18710
H1380       H  0.56126834  0.65543224  0.12294966     0.18720
C1381       C  0.39263703  0.61589784  0.11830425    -0.07120
C1382       C  0.36966902  0.63680950  0.13430213    -0.18240
C1383       C  0.35847778  0.63048135  0.16633566     0.10080
C1384       C  0.37209108  0.60351340  0.18446996    -0.07040
C1385       C  0.39795821  0.58498056  0.16974725    -0.18280
C1386       C  0.40675288  0.58939660  0.13650293     0.10110
S1387       S  0.32588538  0.65751735  0.18098978    -0.33240
S1388       S  0.43311127  0.55821548  0.11813713    -0.33250
H1389       H  0.41085689  0.55256684  0.09147360     0.28120
H1390       H  0.30857640  0.63347785  0.19881130     0.28120
H1391       H  0.35883493  0.65764048  0.12116009     0.18710
H1392       H  0.40873969  0.56433413  0.18312551     0.18720
C1393       C  0.38479529  0.61350552  0.88271234    -0.07120
C1394       C  0.36872563  0.63654236  0.86181167    -0.18240
C1395       C  0.36109991  0.62854663  0.82889725     0.10080
C1396       C  0.37046322  0.59722105  0.81666945    -0.07040
C1397       C  0.38858346  0.57546297  0.83714008    -0.18280
C1398       C  0.39447792  0.58234160  0.87012224     0.10110
S1399       S  0.33952291  0.65894746  0.80409316    -0.33240
S1400       S  0.41208304  0.54970074  0.89566746    -0.33250
H1401       H  0.41415022  0.52490825  0.87129200     0.28120
H1402       H  0.32130219  0.63619897  0.78478983     0.28120
H1403       H  0.36187197  0.66075406  0.87117990     0.18710
H1404       H  0.39643843  0.55185608  0.82723583     0.18720
C1405       C  0.53190893  0.61582453  0.87475282    -0.07120
C1406       C  0.50977456  0.59497305  0.85708856    -0.18240
C1407       C  0.51766073  0.58242611  0.82568006     0.10080
C1408       C  0.54868597  0.59102327  0.81070511    -0.07040
C1409       C  0.57003684  0.61304889  0.82797532    -0.18280
C1410       C  0.56210098  0.62560333  0.85920874     0.10110
S1411       S  0.48682986  0.55495820  0.80747870    -0.33240
S1412       S  0.59293346  0.65228116  0.87838721    -0.33250
H1413       H  0.57079092  0.67946283  0.87941112     0.28120
H1414       H  0.50835716  0.53769326  0.78682855     0.28120
H1415       H  0.48619330  0.58763042  0.86817690     0.18710
H1416       H  0.59424870  0.61937312  0.81781677     0.18720
C1417       C  0.57448290  0.78300079  0.07669035    -0.07120
C1418       C  0.59003372  0.77306260  0.10623691    -0.18240
C1419       C  0.62212533  0.78464499  0.11543720     0.10080
C1420       C  0.64030227  0.80549725  0.09346515    -0.07040
C1421       C  0.62489246  0.81426466  0.06339838    -0.18280
C1422       C  0.59197728  0.80444895  0.05548462     0.10110
S1423       S  0.63784954  0.77053861  0.15500597    -0.33240
S1424       S  0.57355578  0.81917271  0.01748691    -0.33250
H1425       H  0.54327742  0.82893627  0.03232077     0.28120
H1426       H  0.66802236  0.78850874  0.15547152     0.28120
H1427       H  0.57726077  0.75550517  0.12203485     0.18710
H1428       H  0.63796531  0.83079938  0.04689598     0.18720
C1429       C  0.34604297  0.78057863  0.07632288    -0.07120
C1430       C  0.33385259  0.77695698  0.10850912    -0.18240
C1431       C  0.30140157  0.78766010  0.11707174     0.10080
C1432       C  0.28055295  0.80320351  0.09283851    -0.07040
C1433       C  0.29167551  0.80338278  0.06009416    -0.18280
C1434       C  0.32405007  0.79287640  0.05171400     0.10110
S1435       S  0.28801230  0.77829669  0.15854829    -0.33240
S1436       S  0.33555452  0.79412524  0.00880442    -0.33250
H1437       H  0.36730668  0.80838434  0.01471066     0.28120
H1438       H  0.25675652  0.79423326  0.15713581     0.28120
H1439       H  0.34929981  0.76453438  0.12686105     0.18710
H1440       H  0.27556154  0.81369656  0.04121327     0.18720
C1441       C  0.69781663  0.87832888  0.86329677    -0.07120
C1442       C  0.70175459  0.87999583  0.82893298    -0.18240
C1443       C  0.71986233  0.90536161  0.81363276     0.10080
C1444       C  0.74132993  0.92637953  0.83244157    -0.07040
C1445       C  0.74026463  0.92224720  0.86724394    -0.18280
C1446       C  0.71717699  0.90052089  0.88274522     0.10110
S1447       S  0.70828528  0.91363940  0.77159578    -0.33240
S1448       S  0.70940828  0.90503684  0.92641046    -0.33250
H1449       H  0.73439051  0.92894008  0.93293454     0.28120
H1450       H  0.67684635  0.89752668  0.77122840     0.28120
H1451       H  0.68668786  0.86405007  0.81337877     0.18710
H1452       H  0.75484307  0.93874045  0.88263523     0.18720
C1453       C  0.69369510  0.82661112  0.92465915    -0.07120
C1454       C  0.72830150  0.82513370  0.91661859    -0.18240
C1455       C  0.75262247  0.81366502  0.93995459     0.10080
C1456       C  0.74162764  0.79702400  0.96905019    -0.07040
C1457       C  0.70686664  0.79599296  0.97453442    -0.18280
C1458       C  0.68477063  0.81495715  0.95623673     0.10110
S1459       S  0.79625515  0.82146222  0.93083573    -0.33240
S1460       S  0.64845386  0.82877602  0.97830889    -0.33250
H1461       H  0.64995619  0.86106694  0.96533276     0.28120
H1462       H  0.80923839  0.81462264  0.96238183     0.28120
H1463       H  0.73676636  0.83388459  0.89289895     0.18710
H1464       H  0.69689438  0.78403413  0.99625283     0.18720
C1465       C  0.63246689  0.81830939  0.90513960    -0.07120
C1466       C  0.60412421  0.83620783  0.91613011    -0.18240
C1467       C  0.57265102  0.82134436  0.92036783     0.10080
C1468       C  0.56921798  0.78687217  0.91567818    -0.07040
C1469       C  0.59718780  0.76908493  0.90374709    -0.18280
C1470       C  0.62855702  0.78404985  0.89878725     0.10110
S1471       S  0.53868008  0.84770363  0.93319467    -0.33240
S1472       S  0.66245493  0.75693657  0.88646836    -0.33250
H1473       H  0.68599395  0.78080651  0.87698431     0.28120
H1474       H  0.51563994  0.83392934  0.91040476     0.28120
H1475       H  0.60685065  0.86201509  0.92281171     0.18710
H1476       H  0.59517422  0.74258068  0.89978306     0.18720
C1477       C  0.73829500  0.98833069  0.83169223    -0.07120
C1478       C  0.70839126  0.99707774  0.81556518    -0.18240
C1479       C  0.68988485  0.02449239  0.82555859     0.10080
C1480       C  0.69529094  0.03837227  0.85748515    -0.07040
C1481       C  0.72548462  0.02912310  0.87379970    -0.18280
C1482       C  0.74785912  0.00593673  0.86039511     0.10110
S1483       S  0.66253132  0.04224636  0.79460790    -0.33240
S1484       S  0.78721134  0.99965374  0.88221671    -0.33250
H1485       H  0.79954264  0.97329607  0.86337398     0.28120
H1486       H  0.66781339  0.07495897  0.80564810     0.28120
H1487       H  0.70120127  0.98441888  0.79296094     0.18710
H1488       H  0.73232898  0.03854244  0.89743695     0.18720
C1489       C  0.28675043  0.82034738  0.90665423    -0.07120
C1490       C  0.28817149  0.78641781  0.89925865    -0.18240
C1491       C  0.31776704  0.76807053  0.90385969     0.10080
C1492       C  0.34657070  0.78351282  0.91789046    -0.07040
C1493       C  0.34603229  0.81785721  0.92319733    -0.18280
C1494       C  0.31673348  0.83655112  0.91750280     0.10110
S1495       S  0.31836933  0.72504711  0.89115104    -0.33240
S1496       S  0.31769354  0.88020460  0.92748782    -0.33250
H1497       H  0.35287869  0.88339127  0.92983625     0.28120
H1498       H  0.28535974  0.72358440  0.87842018     0.28120
H1499       H  0.26579737  0.77435791  0.88960294     0.18710
H1500       H  0.36796251  0.82976999  0.93393484     0.18720
C1501       C  0.53995141  0.83618027  0.66236564    -0.07120
C1502       C  0.57405389  0.82783477  0.66021337    -0.18240
C1503       C  0.58374022  0.79615318  0.64937030     0.10080
C1504       C  0.55885386  0.77397142  0.63700924    -0.07040
C1505       C  0.52480543  0.78244542  0.64048920    -0.18280
C1506       C  0.51551126  0.81190763  0.65567915     0.10110
S1507       S  0.62695415  0.78331953  0.65465388    -0.33240
S1508       S  0.47337407  0.81490710  0.67110497    -0.33250
H1509       H  0.48142124  0.83484802  0.69861371     0.28120
H1510       H  0.63963673  0.81408263  0.66544700     0.28120
H1511       H  0.59287711  0.84582930  0.66767362     0.18710
H1512       H  0.50536535  0.76491137  0.63341388     0.18720
C1513       C  0.39545521  0.07511060  0.65911352    -0.07120
C1514       C  0.40785118  0.08754122  0.62927231    -0.18240
C1515       C  0.39895161  0.11907220  0.61778001     0.10080
C1516       C  0.37656955  0.13910219  0.63631358    -0.07040
C1517       C  0.36669228  0.12765946  0.66750147    -0.18280
C1518       C  0.37628043  0.09649665  0.67932646     0.10110
S1519       S  0.41798348  0.13165443  0.57971058    -0.33240
S1520       S  0.36353334  0.08620322  0.72065798    -0.33250
H1521       H  0.39509093  0.07310039  0.72972390     0.28120
H1522       H  0.39032509  0.14899860  0.56801055     0.28120
H1523       H  0.42390104  0.07217280  0.61410393     0.18710
H1524       H  0.35017603  0.14247494  0.68253300     0.18720
C1525       C  0.54124842  0.06482061  0.65627711    -0.07120
C1526       C  0.52967579  0.07372875  0.62469100    -0.18240
C1527       C  0.53084755  0.10624502  0.61412626     0.10080
C1528       C  0.54709012  0.13015317  0.63418982    -0.07040
C1529       C  0.56018500  0.12123743  0.66512014    -0.18280
C1530       C  0.55676831  0.08895252  0.67678219     0.10110
S1531       S  0.50726920  0.11627420  0.57717567    -0.33240
S1532       S  0.57060904  0.08118858  0.71850185    -0.33250
H1533       H  0.53848922  0.07106641  0.72890656     0.28120
H1534       H  0.49717351  0.14778407  0.58783356     0.28120
H1535       H  0.51724714  0.05571144  0.60886350     0.18710
H1536       H  0.57202701  0.13988392  0.68064332     0.18720
C1537       C  0.38543349  0.83753905  0.65399789    -0.07120
C1538       C  0.40597111  0.82209381  0.63051420    -0.18240
C1539       C  0.40204591  0.78883419  0.62204240     0.10080
C1540       C  0.37409144  0.77109878  0.63414920    -0.07040
C1541       C  0.35439619  0.78584953  0.65883799    -0.18280
C1542       C  0.35949524  0.81871139  0.66873620     0.10110
S1543       S  0.43567702  0.77076645  0.59850313    -0.33240
S1544       S  0.33101765  0.83491698  0.69910581    -0.33250
H1545       H  0.32290663  0.86311657  0.68032782     0.28120
H1546       H  0.41646611  0.74658196  0.58326153     0.28120
H1547       H  0.42661218  0.83560705  0.61954396     0.18710
H1548       H  0.33344227  0.77215228  0.66901918     0.18720
C1549       C  0.34101184  0.03111446  0.82497431    -0.07120
C1550       C  0.31852748  0.05292584  0.80905069    -0.18240
C1551       C  0.28758135  0.06187862  0.82313078     0.10080
C1552       C  0.27770415  0.04769136  0.85352518    -0.07040
C1553       C  0.29946571  0.02446472  0.86831419    -0.18280
C1554       C  0.33112286  0.01703760  0.85527335     0.10110
S1555       S  0.26178100  0.09061445  0.80019254    -0.33240
S1556       S  0.35710717  0.98852349  0.87809925    -0.33250
H1557       H  0.38402698  0.01108989  0.88067064     0.28120
H1558       H  0.24403154  0.10338199  0.82698838     0.28120
H1559       H  0.32514882  0.06313546  0.78523807     0.18710
H1560       H  0.29256903  0.01290884  0.89118898     0.18720
C1561       C  0.56843109  0.87698749  0.83437515    -0.07120
C1562       C  0.58810260  0.85117901  0.82165052    -0.18240
C1563       C  0.62081647  0.84522955  0.83315849     0.10080
C1564       C  0.63529079  0.86688199  0.85702718    -0.07040
C1565       C  0.61592634  0.89334416  0.86899301    -0.18280
C1566       C  0.58225411  0.89747700  0.85935524     0.10110
S1567       S  0.64190754  0.80958903  0.81591153    -0.33240
S1568       S  0.55764396  0.92713666  0.88203175    -0.33250
H1569       H  0.54214479  0.94165414  0.85442288     0.28120
H1570       H  0.67299566  0.81301985  0.83201216     0.28120
H1571       H  0.57803989  0.83588230  0.80183752     0.18710
H1572       H  0.62621712  0.90899009  0.88838861     0.18720
C1573       C  0.56794010  0.03256492  0.83526678    -0.07120
C1574       C  0.58768325  0.00848385  0.85106023    -0.18240
C1575       C  0.61877084  0.01608733  0.86569165     0.10080
C1576       C  0.63163644  0.04868753  0.86329555    -0.07040
C1577       C  0.61168770  0.07291037  0.84736666    -0.18280
C1578       C  0.57993365  0.06535718  0.83400960     0.10110
S1579       S  0.64162805  0.98226856  0.88458653    -0.33240
S1580       S  0.55710359  0.09801366  0.81345089    -0.33250
H1581       H  0.52508122  0.08360629  0.81676923     0.28120
H1582       H  0.66199550  0.00139233  0.90576372     0.28120
H1583       H  0.57988480  0.98299056  0.85002735     0.18710
H1584       H  0.62173877  0.09748489  0.84350637     0.18720
C1585       C  0.34347757  0.87842182  0.82418649    -0.07120
C1586       C  0.32584328  0.90450299  0.83882813    -0.18240
C1587       C  0.29494739  0.89934978  0.85407482     0.10080
C1588       C  0.28124558  0.86697186  0.85556349    -0.07040
C1589       C  0.29768558  0.84139319  0.83820113    -0.18280
C1590       C  0.32884817  0.84664219  0.82310009     0.10110
S1591       S  0.27471711  0.93540696  0.87077420    -0.33240
S1592       S  0.34835722  0.81210324  0.80247003    -0.33250
H1593       H  0.38157610  0.82388760  0.80509090     0.28120
H1594       H  0.26315004  0.91978593  0.89923772     0.28120
H1595       H  0.33592217  0.92943874  0.83758764     0.18710
H1596       H  0.28645573  0.81694666  0.83709230     0.18720
C1597       C  0.53764447  0.33140012  0.81276678    -0.07120
C1598       C  0.53531979  0.29692285  0.81800095    -0.18240
C1599       C  0.52751751  0.28362818  0.84884974     0.10080
C1600       C  0.52130703  0.30506420  0.87558627    -0.07040
C1601       C  0.52053100  0.33934413  0.86994133    -0.18280
C1602       C  0.52844027  0.35282627  0.83907071     0.10110
S1603       S  0.52559462  0.23909323  0.85210324    -0.33240
S1604       S  0.52525905  0.39737708  0.83579641    -0.33250
H1605       H  0.53752910  0.40134291  0.80381151     0.28120
H1606       H  0.49870178  0.23839420  0.87440764     0.28120
H1607       H  0.54128012  0.27968395  0.79858416     0.18710
H1608       H  0.51430701  0.35594149  0.89006714     0.18720
C1609       C  0.36239721  0.31666704  0.16990197    -0.07120
C1610       C  0.34845965  0.28665981  0.15893197    -0.18240
C1611       C  0.35300802  0.27593662  0.12650643     0.10080
C1612       C  0.37071607  0.29644829  0.10418256    -0.07040
C1613       C  0.38236556  0.32754951  0.11485455    -0.18280
C1614       C  0.37990259  0.33711309  0.14764361     0.10110
S1615       S  0.33756397  0.23517591  0.11637966    -0.33240
S1616       S  0.40262329  0.37372252  0.16041667    -0.33250
H1617       H  0.41715223  0.35848301  0.18822351     0.28120
H1618       H  0.36989602  0.22287825  0.10949068     0.28120
H1619       H  0.33556949  0.27075232  0.17625453     0.18710
H1620       H  0.39578595  0.34367160  0.09811772     0.18720
C1621       C  0.54882091  0.30590783  0.17756997    -0.07120
C1622       C  0.51698482  0.31673255  0.16670839    -0.18240
C1623       C  0.50637376  0.31255499  0.13389667     0.10080
C1624       C  0.52643290  0.29447726  0.11155191    -0.07040
C1625       C  0.55681958  0.28088477  0.12337825    -0.18280
C1626       C  0.56853108  0.28670676  0.15560877     0.10110
S1627       S  0.46824631  0.33305157  0.12184312    -0.33240
S1628       S  0.60922842  0.26953371  0.16585345    -0.33250
H1629       H  0.61325655  0.28418078  0.19690337     0.28120
H1630       H  0.48423228  0.35238263  0.09771192     0.28120
H1631       H  0.50175997  0.33180831  0.18296485     0.18710
H1632       H  0.57245359  0.26643810  0.10696763     0.18720
C1633       C  0.36935200  0.28647857  0.87608339    -0.07120
C1634       C  0.33698171  0.29928069  0.87061959    -0.18240
C1635       C  0.32571644  0.30540901  0.83821124     0.10080
C1636       C  0.34925825  0.30428540  0.81238972    -0.07040
C1637       C  0.37530912  0.28098897  0.81694878    -0.18280
C1638       C  0.38701145  0.27378063  0.84878090     0.10110
S1639       S  0.28166440  0.30020343  0.82861902    -0.33240
S1640       S  0.42406294  0.24825169  0.85265418    -0.33250
H1641       H  0.43814838  0.26507215  0.87980791     0.28120
H1642       H  0.27033605  0.30289199  0.86135716     0.28120
H1643       H  0.32010317  0.30243598  0.89125128     0.18710
H1644       H  0.38909982  0.27115760  0.79625633     0.18720
C1645       C  0.57739448  0.12931140  0.92222190    -0.07120
C1646       C  0.58448444  0.09850151  0.93683745    -0.18240
C1647       C  0.61568185  0.08276467  0.93197681     0.10080
C1648       C  0.64024522  0.09809318  0.91206220    -0.07040
C1649       C  0.63332729  0.12923826  0.89847544    -0.18280
C1650       C  0.60224322  0.14467670  0.90274407     0.10110
S1651       S  0.62419926  0.04351742  0.95155305    -0.33240
S1652       S  0.59401992  0.18312531  0.88123351    -0.33250
H1653       H  0.62688187  0.18860371  0.86979969     0.28120
H1654       H  0.59224641  0.03924505  0.96559943     0.28120
H1655       H  0.56600035  0.08729187  0.95282449     0.18710
H1656       H  0.65122527  0.14039086  0.88211732     0.18720
C1657       C  0.34984409  0.11939931  0.07193234    -0.07120
C1658       C  0.32927188  0.13253559  0.09668848    -0.18240
C1659       C  0.29767791  0.11889873  0.10376715     0.10080
C1660       C  0.28540707  0.09173043  0.08469494    -0.07040
C1661       C  0.30653393  0.07848450  0.06034314    -0.18280
C1662       C  0.33845617  0.09147016  0.05415506     0.10110
S1663       S  0.27511376  0.13857254  0.13698964    -0.33240
S1664       S  0.36219873  0.07295790  0.02128623    -0.33250
H1665       H  0.39129142  0.06912750  0.04092819     0.28120
H1666       H  0.25165423  0.11343868  0.14285938     0.28120
H1667       H  0.33751460  0.15448695  0.10998137     0.18710
H1668       H  0.29859663  0.05738466  0.04606350     0.18720
C1669       C  0.57041342  0.13122005  0.07530425    -0.07120
C1670       C  0.57376246  0.09850857  0.06404717    -0.18240
C1671       C  0.60435472  0.08148428  0.06715492     0.10080
C1672       C  0.63220426  0.09716176  0.08283747    -0.07040
C1673       C  0.62789158  0.12885612  0.09654740    -0.18280
C1674       C  0.59727568  0.14593238  0.09314475     0.10110
S1675       S  0.60934780  0.04303592  0.04496832    -0.33240
S1676       S  0.59275900  0.18657757  0.11140760    -0.33250
H1677       H  0.62473983  0.18801612  0.12650162     0.28120
H1678       H  0.57500907  0.03728460  0.03848940     0.28120
H1679       H  0.55350173  0.08747216  0.04975747     0.18710
H1680       H  0.64888384  0.14036619  0.10937794     0.18720
C1681       C  0.28872959  0.09701080  0.89919156    -0.07120
C1682       C  0.29907618  0.12378032  0.87974163    -0.18240
C1683       C  0.33178553  0.13644184  0.88236538     0.10080
C1684       C  0.35481409  0.12226855  0.90504662    -0.07040
C1685       C  0.34554992  0.09372916  0.92223958    -0.18280
C1686       C  0.31265689  0.08160274  0.92051781     0.10110
S1687       S  0.34215196  0.17229890  0.85789975    -0.33240
S1688       S  0.30275094  0.04865649  0.94882759    -0.33250
H1689       H  0.26920237  0.05746183  0.95328030     0.28120
H1690       H  0.37725594  0.16817414  0.85996748     0.28120
H1691       H  0.28125814  0.13551951  0.86312792     0.18710
H1692       H  0.36273836  0.08326389  0.94034200     0.18720
C1693       C  0.84995982  0.53410798  0.33988829    -0.07120
C1694       C  0.84492835  0.53121438  0.37386943    -0.18240
C1695       C  0.81299295  0.53346775  0.38697840     0.10080
C1696       C  0.78579667  0.54197504  0.36571210    -0.07040
C1697       C  0.79112104  0.54588200  0.33181614    -0.18280
C1698       C  0.82269423  0.54070257  0.31856607     0.10110
S1699       S  0.80900949  0.52143041  0.42978654    -0.33240
S1700       S  0.82541356  0.53842104  0.27445289    -0.33250
H1701       H  0.84320617  0.50828749  0.27427376     0.28120
H1702       H  0.77403326  0.51845775  0.43015858     0.28120
H1703       H  0.86577034  0.52478017  0.39008329     0.18710
H1704       H  0.77009128  0.55133383  0.31547628     0.18720
C1705       C  0.07609847  0.37802110  0.33272256    -0.07120
C1706       C  0.09768565  0.40339291  0.34364105    -0.18240
C1707       C  0.13053393  0.39675812  0.35401325     0.10080
C1708       C  0.14245013  0.36369082  0.35304668    -0.07040
C1709       C  0.12195226  0.33912639  0.33833593    -0.18280
C1710       C  0.08870431  0.34559137  0.32935870     0.10110
S1711       S  0.15498698  0.43173451  0.36864957    -0.33240
S1712       S  0.06325168  0.31088299  0.31638756    -0.33250
H1713       H  0.03559766  0.31978950  0.33597718     0.28120
H1714       H  0.17417258  0.41468532  0.39225426     0.28120
H1715       H  0.08867952  0.42867849  0.34464793     0.18710
H1716       H  0.13142644  0.31411006  0.33578986     0.18720
C1717       C  0.07652974  0.53036980  0.34075540    -0.07120
C1718       C  0.09133602  0.55732969  0.32454687    -0.18240
C1719       C  0.12394831  0.56749416  0.33197017     0.10080
C1720       C  0.14279479  0.54941500  0.35554352    -0.07040
C1721       C  0.12842370  0.52191807  0.37104478    -0.18280
C1722       C  0.09504638  0.51332781  0.36537211     0.10110
S1723       S  0.13890570  0.60338335  0.30996120    -0.33240
S1724       S  0.07757456  0.48233213  0.39225712    -0.33250
H1725       H  0.04932707  0.50169941  0.40019630     0.28120
H1726       H  0.17152848  0.60407220  0.32257146     0.28120
H1727       H  0.07738749  0.57085184  0.30583582     0.18710
H1728       H  0.14257424  0.50869529  0.38982530     0.18720
C1729       C  0.83941267  0.38769634  0.34219062    -0.07120
C1730       C  0.83608534  0.38792907  0.37658373    -0.18240
C1731       C  0.80522058  0.38188839  0.39184729     0.10080
C1732       C  0.77610438  0.37453924  0.37231314    -0.07040
C1733       C  0.77955495  0.37643305  0.33758529    -0.18280
C1734       C  0.81050547  0.38275649  0.32251030     0.10110
S1735       S  0.80602609  0.38482838  0.43625086    -0.33240
S1736       S  0.81113378  0.38496221  0.27804698    -0.33250
H1737       H  0.83314585  0.41226216  0.27686896     0.28120
H1738       H  0.77178069  0.38940503  0.43965615     0.28120
H1739       H  0.85801463  0.39288204  0.39193694     0.18710
H1740       H  0.75858842  0.37178413  0.32133091     0.18720
C1741       C  0.04402027  0.34386622  0.16827064    -0.07120
C1742       C  0.05639994  0.31615043  0.18566910    -0.18240
C1743       C  0.06253483  0.28575911  0.16994287     0.10080
C1744       C  0.05567174  0.28241790  0.13577697    -0.07040
C1745       C  0.04534805  0.31083436  0.11821170    -0.18280
C1746       C  0.04054930  0.34143335  0.13362078     0.10110
S1747       S  0.07684459  0.25201338  0.19565895    -0.33240
S1748       S  0.02757772  0.37528433  0.10760442    -0.33250
H1749       H  0.99626279  0.37868973  0.12288439     0.28120
H1750       H  0.08744854  0.23064330  0.17050923     0.28120
H1751       H  0.05976781  0.31765297  0.21223003     0.18710
H1752       H  0.03758755  0.30856215  0.09270934     0.18720
C1753       C  0.04073510  0.56608811  0.16610901    -0.07120
C1754       C  0.01448137  0.58410139  0.15136705    -0.18240
C1755       C  0.01956266  0.61620826  0.13939201     0.10080
C1756       C  0.05196778  0.63051064  0.14033901    -0.07040
C1757       C  0.07721674  0.61389579  0.15851396    -0.18280
C1758       C  0.07220814  0.58172332  0.17064712     0.10110
S1759       S  0.98308773  0.63919891  0.12724351    -0.33240
S1760       S  0.10669523  0.56210558  0.19216836    -0.33250
H1761       H  0.09634633  0.52934856  0.18581731     0.28120
H1762       H  0.99530642  0.64616326  0.09569596     0.28120
H1763       H  0.98925014  0.57381583  0.15096752     0.18710
H1764       H  0.10142713  0.62569055  0.16225967     0.18720
C1765       C  0.87936521  0.34535535  0.16131166    -0.07120
C1766       C  0.85340499  0.32641339  0.17505548    -0.18240
C1767       C  0.84594977  0.29432772  0.16383302     0.10080
C1768       C  0.86597312  0.27980867  0.13870645    -0.07040
C1769       C  0.89213644  0.29879325  0.12531342    -0.18280
C1770       C  0.89810142  0.33152675  0.13527546     0.10110
S1771       S  0.81116928  0.27406318  0.18395804    -0.33240
S1772       S  0.93089812  0.35375659  0.11463295    -0.33250
H1773       H  0.91091971  0.38203253  0.10934834     0.28120
H1774       H  0.80878433  0.24650490  0.16322744     0.28120
H1775       H  0.83934235  0.33645754  0.19561188     0.18710
H1776       H  0.90781863  0.28833378  0.10632507     0.18720
C1777       C  0.03203441  0.68436174  0.85814951    -0.07120
C1778       C  0.03794199  0.71891236  0.86216605    -0.18240
C1779       C  0.01510934  0.74323136  0.85056069     0.10080
C1780       C  0.98765174  0.73379146  0.83021662    -0.07040
C1781       C  0.98434798  0.70030167  0.82231865    -0.18280
C1782       C  0.00413644  0.67568759  0.83675112     0.10110
S1783       S  0.02170039  0.78529875  0.86415003    -0.33240
S1784       S  0.98842073  0.63430124  0.82830133    -0.33250
H1785       H  0.97606423  0.64031131  0.79617654     0.28120
H1786       H  0.98753022  0.79414596  0.86402049     0.28120
H1787       H  0.05968064  0.72782421  0.87531191     0.18710
H1788       H  0.96367000  0.69289626  0.80639817     0.18720
C1789       C  0.82456882  0.69947852  0.91375799    -0.07120
C1790       C  0.84111453  0.70357545  0.94410065    -0.18240
C1791       C  0.83333475  0.72989044  0.96508982     0.10080
C1792       C  0.80127231  0.74510757  0.96295690    -0.07040
C1793       C  0.78365127  0.74053567  0.93273696    -0.18280
C1794       C  0.79769306  0.72163021  0.90679756     0.10110
S1795       S  0.86508437  0.74246956  0.99441891    -0.33240
S1796       S  0.78194911  0.72893971  0.86567070    -0.33250
H1797       H  0.81263679  0.72193426  0.85035343     0.28120
H1798       H  0.85153675  0.77421100  0.99982866     0.28120
H1799       H  0.86039151  0.68644980  0.95180008     0.18710
H1800       H  0.75904836  0.75097733  0.92879442     0.18720
C1801       C  0.87826437  0.69629187  0.85887007    -0.07120
C1802       C  0.87781433  0.70391002  0.82483189    -0.18240
C1803       C  0.90205214  0.72474023  0.81035962     0.10080
C1804       C  0.92549918  0.74194225  0.83077057    -0.07040
C1805       C  0.92352865  0.73692982  0.86506896    -0.18280
C1806       C  0.90305705  0.71233021  0.87874144     0.10110
S1807       S  0.90373854  0.72441545  0.76583221    -0.33240
S1808       S  0.91653970  0.69876488  0.91909884    -0.33250
H1809       H  0.90100049  0.66773567  0.91873035     0.28120
H1810       H  0.93880176  0.72748842  0.76324271     0.28120
H1811       H  0.86050428  0.69085534  0.80864897     0.18710
H1812       H  0.94230674  0.74855936  0.88088824     0.18720
C1813       C  0.84036823  0.38439213  0.65345064    -0.07120
C1814       C  0.82576423  0.39975661  0.62561842    -0.18240
C1815       C  0.79429940  0.38973527  0.61329382     0.10080
C1816       C  0.77739531  0.36299037  0.62822098    -0.07040
C1817       C  0.79190969  0.34785838  0.65594129    -0.18280
C1818       C  0.82237771  0.35856679  0.66919179     0.10110
S1819       S  0.77790160  0.41037913  0.57734259    -0.33240
S1820       S  0.83579371  0.33808977  0.70650800    -0.33250
H1821       H  0.83813895  0.36792853  0.72448752     0.28120
H1822       H  0.74673610  0.41695055  0.59198461     0.28120
H1823       H  0.83887474  0.41969400  0.61327168     0.18710
H1824       H  0.77886434  0.32759207  0.66777019     0.18720
C1825       C  0.08084288  0.52867271  0.66055765    -0.07120
C1826       C  0.09679943  0.50511538  0.64065106    -0.18240
C1827       C  0.12800497  0.51139060  0.62654733     0.10080
C1828       C  0.14440755  0.54166456  0.63302542    -0.07040
C1829       C  0.13030676  0.56368590  0.65607036    -0.18280
C1830       C  0.09815993  0.55821559  0.66880241     0.10110
S1831       S  0.14444094  0.48155939  0.59803470    -0.33240
S1832       S  0.07955935  0.59141869  0.69207908    -0.33250
H1833       H  0.04944213  0.59120957  0.67353277     0.28120
H1834       H  0.12474601  0.45511020  0.60929949     0.28120
H1835       H  0.08403291  0.48210801  0.63476397     0.18710
H1836       H  0.14297921  0.58685313  0.66153594     0.18720
C1837       C  0.07163095  0.37755219  0.65389576    -0.07120
C1838       C  0.08158694  0.38718196  0.62219058    -0.18240
C1839       C  0.11386857  0.38073682  0.61083127     0.10080
C1840       C  0.13687411  0.36344177  0.63135234    -0.07040
C1841       C  0.12684452  0.35322391  0.66272687    -0.18280
C1842       C  0.09446298  0.35963316  0.67405928     0.10110
S1843       S  0.12456660  0.39730954  0.57095358    -0.33240
S1844       S  0.08471472  0.34526076  0.71480780    -0.33250
H1845       H  0.07676606  0.37719725  0.72641559     0.28120
H1846       H  0.15711950  0.40700960  0.58027220     0.28120
H1847       H  0.06444340  0.40092025  0.60641091     0.18710
H1848       H  0.14466632  0.34063772  0.67873785     0.18720
C1849       C  0.84169443  0.53312454  0.66707761    -0.07120
C1850       C  0.82458627  0.51198240  0.64510998    -0.18240
C1851       C  0.79286761  0.51980815  0.63304517     0.10080
C1852       C  0.77745025  0.54958669  0.64318105    -0.07040
C1853       C  0.79344819  0.56970533  0.66684124    -0.18280
C1854       C  0.82493132  0.56129712  0.67968409     0.10110
S1855       S  0.77542652  0.49213724  0.60236602    -0.33240
S1856       S  0.84209130  0.58788993  0.71136683    -0.33250
H1857       H  0.84680542  0.56161013  0.73375524     0.28120
H1858       H  0.76347066  0.51673442  0.58086977     0.28120
H1859       H  0.83651517  0.48967462  0.63596369     0.18710
H1860       H  0.78177992  0.59264657  0.67457591     0.18720
C1861       C  0.04748996  0.55925339  0.83439725    -0.07120
C1862       C  0.03267959  0.56576791  0.86501651    -0.18240
C1863       C  0.03399218  0.59754483  0.87896463     0.10080
C1864       C  0.05171574  0.62322715  0.86259497    -0.07040
C1865       C  0.06926672  0.61561856  0.83364723    -0.18280
C1866       C  0.06791237  0.58386169  0.81986575     0.10110
S1867       S  0.00781820  0.60487377  0.91426760    -0.33240
S1868       S  0.09160870  0.57652306  0.78278179    -0.33250
H1869       H  0.09307572  0.54187530  0.78638236     0.28120
H1870       H  0.99750194  0.63663805  0.90444329     0.28120
H1871       H  0.01657229  0.54729187  0.87615552     0.18710
H1872       H  0.08390179  0.63471293  0.82161223     0.18720
C1873       C  0.88060602  0.56963441  0.83091942    -0.07120
C1874       C  0.85205199  0.58654565  0.81938862    -0.18240
C1875       C  0.84385958  0.61834891  0.83094322     0.10080
C1876       C  0.86526918  0.63433341  0.85433275    -0.07040
C1877       C  0.89431799  0.61750445  0.86509858    -0.18280
C1878       C  0.90152985  0.58526048  0.85451983     0.10110
S1879       S  0.80700834  0.63717571  0.81266710    -0.33240
S1880       S  0.93919532  0.56603815  0.87018463    -0.33250
H1881       H  0.92298051  0.53610479  0.87797414     0.28120
H1882       H  0.80933711  0.66826095  0.82770751     0.28120
H1883       H  0.83672176  0.57539042  0.80006603     0.18710
H1884       H  0.91148001  0.62916427  0.88234422     0.18720
C1885       C  0.03402816  0.34398710  0.83033393    -0.07120
C1886       C  0.01207278  0.32790312  0.85203264    -0.18240
C1887       C  0.02003038  0.29677093  0.86532443     0.10080
C1888       C  0.04968445  0.28032403  0.85505436    -0.07040
C1889       C  0.07142265  0.29692414  0.83332517    -0.18280
C1890       C  0.06457253  0.32880233  0.82209857     0.10110
S1891       S  0.99174455  0.28018905  0.89575878    -0.33240
S1892       S  0.09658626  0.34952798  0.79862696    -0.33250
H1893       H  0.08600085  0.38197125  0.80583804     0.28120
H1894       H  0.01641798  0.26419700  0.91487207     0.28120
H1895       H  0.98833882  0.33942639  0.85824598     0.18710
H1896       H  0.09515932  0.28583279  0.82667919     0.18720
C1897       C  0.81890444  0.69015670  0.07323343    -0.07120
C1898       C  0.80299024  0.67950745  0.04357176    -0.18240
C1899       C  0.78795920  0.70105881  0.02120707     0.10080
C1900       C  0.79300347  0.73549563  0.02431236    -0.07040
C1901       C  0.80751635  0.74714724  0.05415702    -0.18280
C1902       C  0.81774262  0.72503037  0.07960314     0.10110
S1903       S  0.76216936  0.68249318  0.98911082    -0.33240
S1904       S  0.82438716  0.74343979  0.11967960    -0.33250
H1905       H  0.81759274  0.71467006  0.13770865     0.28120
H1906       H  0.74028140  0.70968435  0.98575214     0.28120
H1907       H  0.80100036  0.65360187  0.03723163     0.18710
H1908       H  0.80992752  0.77359603  0.05811146     0.18720
C1909       C  0.87231526  0.62951886  0.13061119    -0.07120
C1910       C  0.85280673  0.61758599  0.15674078    -0.18240
C1911       C  0.85805601  0.58621726  0.17008842     0.10080
C1912       C  0.88481994  0.56644085  0.15892025    -0.07040
C1913       C  0.90345116  0.57729508  0.13166273    -0.18280
C1914       C  0.89706901  0.60828596  0.11701455     0.10110
S1915       S  0.82849720  0.57220937  0.20025445    -0.33240
S1916       S  0.91946813  0.61814444  0.07982364    -0.33250
H1917       H  0.92365472  0.65165555  0.08785289     0.28120
H1918       H  0.83351501  0.53817168  0.19454849     0.28120
H1919       H  0.83250470  0.63259223  0.16622867     0.18710
H1920       H  0.92385275  0.56215682  0.12247803     0.18720
C1921       C  0.85724988  0.28317253  0.84829927    -0.07120
C1922       C  0.87339956  0.30740744  0.86803602    -0.18240
C1923       C  0.88126811  0.33883409  0.85587944     0.10080
C1924       C  0.87336258  0.34660216  0.82276550    -0.07040
C1925       C  0.85766022  0.32224423  0.80298445    -0.18280
C1926       C  0.85040355  0.29064017  0.81490887     0.10110
S1927       S  0.90356283  0.36655033  0.88320523    -0.33240
S1928       S  0.83497255  0.26077653  0.78528033    -0.33250
H1929       H  0.81524966  0.24310234  0.80743005     0.28120
H1930       H  0.93160354  0.36887499  0.86234670     0.28120
H1931       H  0.88083015  0.30132478  0.89308947     0.18710
H1932       H  0.85244447  0.32732334  0.77720803     0.18720
C1933       C  0.61592429  0.37362912  0.10718659    -0.07120
C1934       C  0.63982742  0.36016866  0.12915730    -0.18240
C1935       C  0.63127613  0.35163969  0.16156585     0.10080
C1936       C  0.59754304  0.35527187  0.17176361    -0.07040
C1937       C  0.57417274  0.37002509  0.15014072    -0.18280
C1938       C  0.58271337  0.37874992  0.11806492     0.10110
S1939       S  0.66503083  0.33788954  0.18842621    -0.33240
S1940       S  0.55004194  0.39516791  0.09156555    -0.33250
H1941       H  0.53275732  0.41150459  0.11706730     0.28120
H1942       H  0.64625545  0.32998437  0.21644656     0.28120
H1943       H  0.66569185  0.35739072  0.12142123     0.18710
H1944       H  0.54891034  0.37491623  0.15865151     0.18720
C1945       C  0.62395101  0.51913641  0.12031435    -0.07120
C1946       C  0.60257468  0.49673696  0.13644699    -0.18240
C1947       C  0.58958194  0.50372568  0.16767485     0.10080
C1948       C  0.59811980  0.53387614  0.18355309    -0.07040
C1949       C  0.62256714  0.55431427  0.16923304    -0.18280
C1950       C  0.63556009  0.54739112  0.13799779     0.10110
S1951       S  0.56004262  0.47449036  0.18433159    -0.33240
S1952       S  0.66497871  0.57699381  0.12172771    -0.33250
H1953       H  0.69016322  0.55296925  0.11710635     0.28120
H1954       H  0.53407420  0.49750238  0.18796575     0.28120
H1955       H  0.59444222  0.47427261  0.12400064     0.18710
H1956       H  0.62972928  0.57718390  0.18151856     0.18720
C1957       C  0.61738707  0.53496522  0.88479180    -0.07120
C1958       C  0.58786706  0.52043730  0.87212896    -0.18240
C1959       C  0.57913924  0.52293024  0.83891444     0.10080
C1960       C  0.59798904  0.54394204  0.81817051    -0.07040
C1961       C  0.62697980  0.55943381  0.83074591    -0.18280
C1962       C  0.63720838  0.55478979  0.86358344     0.10110
S1963       S  0.54616404  0.49551366  0.82457851    -0.33240
S1964       S  0.67609202  0.57401810  0.87612139    -0.33250
H1965       H  0.69142942  0.54359734  0.88406722     0.28120
H1966       H  0.55320727  0.49659160  0.79074118     0.28120
H1967       H  0.57264048  0.50462788  0.88763264     0.18710
H1968       H  0.64184119  0.57503013  0.81468803     0.18720
C1969       C  0.62399855  0.38456767  0.87539123    -0.07120
C1970       C  0.62259092  0.35102369  0.86650433    -0.18240
C1971       C  0.61256177  0.34119044  0.83470360     0.10080
C1972       C  0.60200775  0.36561400  0.81157067    -0.07040
C1973       C  0.60684722  0.39915454  0.81965885    -0.18280
C1974       C  0.61842743  0.40872765  0.85091005     0.10110
S1975       S  0.61552480  0.29742576  0.82572898    -0.33240
S1976       S  0.62742457  0.45187931  0.85743757    -0.33250
H1977       H  0.65507672  0.44681328  0.87873749     0.28120
H1978       H  0.60363396  0.29827550  0.79316594     0.28120
H1979       H  0.62897891  0.33226539  0.88462178     0.18710
H1980       H  0.60055911  0.41818571  0.80179870     0.18720
C1981       C  0.79126792  0.34365550  0.07639631    -0.07120
C1982       C  0.82055265  0.33417828  0.05996299    -0.18240
C1983       C  0.83442318  0.30248869  0.06405431     0.10080
C1984       C  0.81945254  0.27974210  0.08634491    -0.07040
C1985       C  0.79065338  0.28998556  0.10341057    -0.18280
C1986       C  0.77655874  0.32134051  0.09880866     0.10110
S1987       S  0.86954044  0.29266985  0.03804269    -0.33240
S1988       S  0.73944650  0.33130721  0.12217669    -0.33250
H1989       H  0.74422569  0.36585002  0.12179718     0.28120
H1990       H  0.88444406  0.27040025  0.05961156     0.28120
H1991       H  0.83159206  0.35092585  0.04224391     0.18710
H1992       H  0.77910025  0.27377417  0.12108265     0.18720
C1993       C  0.79112356  0.57272992  0.92303201    -0.07120
C1994       C  0.77094022  0.59626529  0.90683646    -0.18240
C1995       C  0.78294332  0.62767069  0.89814266     0.10080
C1996       C  0.81661458  0.63657332  0.90546117    -0.07040
C1997       C  0.83704627  0.61296785  0.92173993    -0.18280
C1998       C  0.82505372  0.58109695  0.92971934     0.10110
S1999       S  0.75391146  0.65574916  0.87862594    -0.33240
S2000       S  0.85399824  0.55278579  0.94895484    -0.33250
H2001       H  0.84582012  0.52660281  0.92732178     0.28120
H2002       H  0.72886443  0.63248446  0.87028272     0.28120
H2003       H  0.74482826  0.59035309  0.90193421     0.18710
H2004       H  0.86290545  0.61919826  0.92766880     0.18720
C2005       C  0.79223300  0.56390726  0.08102884    -0.07120
C2006       C  0.77556136  0.58682654  0.10140661    -0.18240
C2007       C  0.78782865  0.61903301  0.10621147     0.10080
C2008       C  0.81745426  0.62897610  0.09001663    -0.07040
C2009       C  0.83366550  0.60628104  0.06917098    -0.18280
C2010       C  0.82238599  0.57370741  0.06565403     0.10110
S2011       S  0.76319090  0.64663911  0.13131379    -0.33240
S2012       S  0.84645393  0.54684606  0.03940005    -0.33250
H2013       H  0.84746428  0.52108217  0.06276056     0.28120
H2014       H  0.79004149  0.66608411  0.14267291     0.28120
H2015       H  0.75179792  0.58003240  0.11247825     0.18710
H2016       H  0.85535143  0.61423729  0.05536688     0.18720
C2017       C  0.79316109  0.34933516  0.91429797    -0.07120
C2018       C  0.78033889  0.33433900  0.88557357    -0.18240
C2019       C  0.78875190  0.30178297  0.87699786     0.10080
C2020       C  0.81072323  0.28329276  0.89778000    -0.07040
C2021       C  0.82348349  0.29840276  0.92658269    -0.18280
C2022       C  0.81567349  0.33127455  0.93447384     0.10110
S2023       S  0.76824992  0.28490752  0.84077807    -0.33240
S2024       S  0.83362072  0.34830093  0.97166594    -0.33250
H2025       H  0.84232685  0.37858245  0.95687815     0.28120
H2026       H  0.77400018  0.25141777  0.84782968     0.28120
H2027       H  0.76178985  0.34742271  0.87078015     0.18710
H2028       H  0.84067745  0.28476958  0.94241071     0.18720
C2029       C  0.31799837  0.37319123  0.81234099    -0.07120
C2030       C  0.28384238  0.37474446  0.82085605    -0.18240
C2031       C  0.27387512  0.38357116  0.85270864     0.10080
C2032       C  0.29857391  0.39190530  0.87659101    -0.07040
C2033       C  0.33193111  0.39582113  0.86650373    -0.18280
C2034       C  0.34147117  0.38786791  0.83434217     0.10110
S2035       S  0.22936848  0.38373269  0.86098466    -0.33240
S2036       S  0.38226178  0.40134460  0.82162683    -0.33250
H2037       H  0.36987639  0.41667102  0.79298374     0.28120
H2038       H  0.23047441  0.41227050  0.88101151     0.28120
H2039       H  0.26463893  0.36686084  0.80380511     0.18710
H2040       H  0.35068634  0.40530570  0.88367507     0.18720
C2041       C  0.31133568  0.54374376  0.10561153    -0.07120
C2042       C  0.33668013  0.52658156  0.12257198    -0.18240
C2043       C  0.34250502  0.53174181  0.15618631     0.10080
C2044       C  0.32435466  0.55689548  0.17271582    -0.07040
C2045       C  0.30067602  0.57570102  0.15512375    -0.18280
C2046       C  0.29523503  0.57052371  0.12149381     0.10110
S2047       S  0.37265914  0.50453869  0.17608718    -0.33240
S2048       S  0.26940561  0.60035643  0.10012813    -0.33250
H2049       H  0.28898599  0.60001619  0.07131471     0.28120
H2050       H  0.36493712  0.51097892  0.20910161     0.28120
H2051       H  0.35111097  0.50789748  0.10986312     0.18710
H2052       H  0.28637146  0.59463473  0.16755589     0.18720
C2053       C  0.29678240  0.38531465  0.11615511    -0.07120
C2054       C  0.28252360  0.35665042  0.12991679    -0.18240
C2055       C  0.29126433  0.34616521  0.16181385     0.10080
C2056       C  0.31517397  0.36474630  0.18032893    -0.07040
C2057       C  0.32574860  0.39534810  0.16829551    -0.18280
C2058       C  0.31740589  0.40551127  0.13651807     0.10110
S2059       S  0.27094926  0.30904610  0.17667921    -0.33240
S2060       S  0.33542970  0.44385619  0.12352779    -0.33250
H2061       H  0.30391205  0.45739139  0.11498626     0.28120
H2062       H  0.29179979  0.30284453  0.20403733     0.28120
H2063       H  0.26535599  0.34156231  0.11536730     0.18710
H2064       H  0.34285158  0.41045102  0.18288193     0.18720
C2065       C  0.30463859  0.53466560  0.88446575    -0.07120
C2066       C  0.32404290  0.51205629  0.86635291    -0.18240
C2067       C  0.33418839  0.51890128  0.83425972     0.10080
C2068       C  0.32382970  0.54883379  0.81913398    -0.07040
C2069       C  0.30411790  0.57137357  0.83711869    -0.18280
C2070       C  0.29523759  0.56506193  0.86976789     0.10110
S2071       S  0.36033226  0.48829467  0.81436052    -0.33240
S2072       S  0.27354350  0.59753433  0.89147737    -0.33250
H2073       H  0.29307074  0.59422335  0.92044962     0.28120
H2074       H  0.37647377  0.50930281  0.79189725     0.28120
H2075       H  0.33148799  0.48863226  0.87721333     0.18710
H2076       H  0.29641868  0.59445514  0.82574469     0.18720
C2077       C  0.12997227  0.34831352  0.91039872    -0.07120
C2078       C  0.14822163  0.32536057  0.89147412    -0.18240
C2079       C  0.13563635  0.29371216  0.88425739     0.10080
C2080       C  0.10402109  0.28407706  0.89700756    -0.07040
C2081       C  0.08537212  0.30746650  0.91508743    -0.18280
C2082       C  0.09708109  0.33981515  0.92015632     0.10110
S2083       S  0.16216789  0.26703831  0.85978391    -0.33240
S2084       S  0.06896654  0.36868946  0.93944486    -0.33250
H2085       H  0.07660671  0.39449979  0.91741651     0.28120
H2086       H  0.14278716  0.23812706  0.86031312     0.28120
H2087       H  0.17341857  0.33159705  0.88353195     0.18710
H2088       H  0.06111232  0.30062102  0.92483892     0.18720
C2089       C  0.13055624  0.56148176  0.08335107    -0.07120
C2090       C  0.09766513  0.56698243  0.07196415    -0.18240
C2091       C  0.08224432  0.59795315  0.07584930     0.10080
C2092       C  0.10000145  0.62434979  0.09145189    -0.07040
C2093       C  0.13232039  0.61821724  0.10408349    -0.18280
C2094       C  0.14698227  0.58683462  0.10153777     0.10110
S2095       S  0.04086273  0.60274751  0.05837789    -0.33240
S2096       S  0.18663190  0.58039813  0.12242826    -0.33250
H2097       H  0.18304021  0.54584899  0.12553243     0.28120
H2098       H  0.04886164  0.63269661  0.04306626     0.28120
H2099       H  0.08483226  0.54796018  0.05771340     0.18710
H2100       H  0.14568956  0.63778620  0.11707500     0.18720
C2101       C  0.12900401  0.33710155  0.06880245    -0.07120
C2102       C  0.14341702  0.31522026  0.09193331    -0.18240
C2103       C  0.12868878  0.28432019  0.09928046     0.10080
C2104       C  0.09943546  0.27370502  0.08180104    -0.07040
C2105       C  0.08685614  0.29474598  0.05687196    -0.18280
C2106       C  0.09995196  0.32655400  0.05158206     0.10110
S2107       S  0.14912868  0.26027698  0.13112223    -0.33240
S2108       S  0.07803775  0.35261534  0.02269383    -0.33250
H2109       H  0.07457201  0.37877955  0.04541868     0.28120
H2110       H  0.12885153  0.23217702  0.12926646     0.28120
H2111       H  0.16646329  0.32237315  0.10457592     0.18710
H2112       H  0.06422483  0.28819202  0.04369006     0.18720
C2113       C  0.09733095  0.63247821  0.91278568    -0.07120
C2114       C  0.12119223  0.61896661  0.89107508    -0.18240
C2115       C  0.13511151  0.58751120  0.89628705     0.10080
C2116       C  0.12619860  0.56914301  0.92452450    -0.07040
C2117       C  0.10445615  0.58356692  0.94754379    -0.18280
C2118       C  0.09033670  0.61498980  0.94223609     0.10110
S2119       S  0.16413384  0.57206041  0.86591903    -0.33240
S2120       S  0.06586511  0.63203437  0.97520919    -0.33250
H2121       H  0.04251441  0.64767266  0.95489720     0.28120
H2122       H  0.15778601  0.53827113  0.87166585     0.28120
H2123       H  0.12778718  0.63244433  0.86893788     0.18710
H2124       H  0.09961489  0.57087917  0.97060841     0.18720
C2125       C  0.74654285  0.99316611  0.15170738    -0.07120
C2126       C  0.73375406  0.02066372  0.16911667    -0.18240
C2127       C  0.71294661  0.04439259  0.15406094     0.10080
C2128       C  0.70241584  0.04044605  0.12086004    -0.07040
C2129       C  0.71932402  0.01655856  0.10188416    -0.18280
C2130       C  0.74160766  0.99342779  0.11679258     0.10110
S2131       S  0.69935708  0.07857381  0.17930736    -0.33240
S2132       S  0.76222915  0.96300900  0.09122678    -0.33250
H2133       H  0.75032996  0.97493279  0.06066764     0.28120
H2134       H  0.69509621  0.10062890  0.15271818     0.28120
H2135       H  0.73618990  0.02252374  0.19529050     0.18710
H2136       H  0.71368661  0.01479489  0.07576859     0.18720
C2137       C  0.73619689  0.93099012  0.15865976    -0.07120
C2138       C  0.75059372  0.89992618  0.15076027    -0.18240
C2139       C  0.73029759  0.87262902  0.14012725     0.10080
C2140       C  0.69574366  0.87778458  0.13183042    -0.07040
C2141       C  0.68285151  0.90975354  0.13802305    -0.18280
C2142       C  0.70102138  0.93410435  0.15451665     0.10110
S2143       S  0.74801010  0.83156654  0.14194488    -0.33240
S2144       S  0.67608251  0.96621928  0.17357349    -0.33250
H2145       H  0.69769724  0.97129551  0.20068796     0.28120
H2146       H  0.78157843  0.84135282  0.14722527     0.28120
H2147       H  0.77732368  0.89655063  0.15458906     0.18710
H2148       H  0.65679514  0.91545895  0.13316610     0.18720
C2149       C  0.79192250  0.92806361  0.21293675    -0.07120
C2150       C  0.82694392  0.92450841  0.21816008    -0.18240
C2151       C  0.84084925  0.90112668  0.24002041     0.10080
C2152       C  0.82001103  0.87717585  0.25499867    -0.07040
C2153       C  0.78522224  0.87910813  0.24807972    -0.18280
C2154       C  0.77092178  0.90477095  0.22916377     0.10110
S2155       S  0.88436950  0.90682917  0.25108584    -0.33240
S2156       S  0.72585310  0.90793403  0.23107720    -0.33250
H2157       H  0.72649900  0.94085240  0.24179526     0.28120
H2158       H  0.89345833  0.87382998  0.24606215     0.28120
H2159       H  0.84407818  0.94158680  0.20686803     0.18710
H2160       H  0.76826721  0.86217329  0.25993885     0.18720
C2161       C  0.81680377  0.03702414  0.26116837    -0.07120
C2162       C  0.83722816  0.02553482  0.23514117    -0.18240
C2163       C  0.82402509  0.00493201  0.20983010     0.10080
C2164       C  0.79168657  0.99054117  0.21347462    -0.07040
C2165       C  0.77187065  0.00171337  0.23954198    -0.18280
C2166       C  0.78235029  0.02734069  0.26039733     0.10110
S2167       S  0.84940237  0.99837327  0.17368581    -0.33240
S2168       S  0.75023711  0.04822503  0.28404450    -0.33250
H2169       H  0.72203721  0.03372285  0.26848069     0.28120
H2170       H  0.82355195  0.98516379  0.15374149     0.28120
H2171       H  0.86344844  0.03250452  0.23421716     0.18710
H2172       H  0.74689221  0.99166381  0.24235081     0.18720
C2173       C  0.92972417  0.73565120  0.15998740    -0.07120
C2174       C  0.92019756  0.73914001  0.12649879    -0.18240
C2175       C  0.89951990  0.71563098  0.11026665     0.10080
C2176       C  0.88214999  0.69150362  0.12902489    -0.07040
C2177       C  0.88802112  0.69162094  0.16351394    -0.18280
C2178       C  0.91323803  0.71099559  0.17843869     0.10110
S2179       S  0.89962655  0.71684379  0.06584869    -0.33240
S2180       S  0.92572819  0.70137475  0.22018700    -0.33250
H2181       H  0.90856418  0.67098607  0.22280174     0.28120
H2182       H  0.88631653  0.68529423  0.05957604     0.28120
H2183       H  0.93127372  0.75868510  0.11197515     0.18710
H2184       H  0.87456405  0.67443168  0.17891458     0.18720
C2185       C  0.99324509  0.73658585  0.15967800    -0.07120
C2186       C  0.99900566  0.73539391  0.12528672    -0.18240
C2187       C  0.02190038  0.71312574  0.11087893     0.10080
C2188       C  0.04190602  0.69231819  0.13142312    -0.07040
C2189       C  0.03940019  0.69698022  0.16579313    -0.18280
C2190       C  0.01503880  0.71760385  0.18000149     0.10110
S2191       S  0.02173117  0.71198142  0.06640996    -0.33240
S2192       S  0.01151026  0.71701274  0.22411985    -0.33250
H2193       H  0.04419421  0.70542623  0.23101948     0.28120
H2194       H  0.02885810  0.67840958  0.06379670     0.28120
H2195       H  0.98477040  0.75126500  0.10901077     0.18710
H2196       H  0.05499386  0.68199843  0.18194227     0.18720
C2197       C  0.98935209  0.80211998  0.20584688    -0.07120
C2198       C  0.98137332  0.82919331  0.22658287    -0.18240
C2199       C  0.00424773  0.84157221  0.24998722     0.10080
C2200       C  0.03653959  0.82738649  0.25274161    -0.07040
C2201       C  0.04711591  0.80652823  0.22704267    -0.18280
C2202       C  0.02446806  0.79652226  0.20182091     0.10110
S2203       S  0.99161050  0.87572160  0.27575647    -0.33240
S2204       S  0.04316367  0.79261132  0.16174562    -0.33250
H2205       H  0.01405747  0.80278040  0.14449536     0.28120
H2206       H  0.96325816  0.88514405  0.25700830     0.28120
H2207       H  0.95618413  0.83925111  0.22648055     0.18710
H2208       H  0.07344596  0.79987234  0.22543491     0.18720
C2209       C  0.92749892  0.78535860  0.21387160    -0.07120
C2210       C  0.89944481  0.80232456  0.20056099    -0.18240
C2211       C  0.87299575  0.81485140  0.22098457     0.10080
C2212       C  0.87527632  0.81209425  0.25629431    -0.07040
C2213       C  0.90125003  0.79070384  0.26767462    -0.18280
C2214       C  0.92725111  0.77899434  0.24810203     0.10110
S2215       S  0.83559314  0.82945628  0.20045227    -0.33240
S2216       S  0.96234918  0.75993900  0.26941114    -0.33250
H2217       H  0.94455774  0.74796131  0.29682951     0.28120
H2218       H  0.84964716  0.83356405  0.16894556     0.28120
H2219       H  0.89860771  0.80625592  0.17413713     0.18710
H2220       H  0.90347870  0.78395509  0.29323058     0.18720
C2221       C  0.10315515  0.87338883  0.73039910    -0.07120
C2222       C  0.11252487  0.90426210  0.71684715    -0.18240
C2223       C  0.12908398  0.92898278  0.73473602     0.10080
C2224       C  0.13093423  0.92754674  0.76973707    -0.07040
C2225       C  0.11971061  0.89760360  0.78430898    -0.18280
C2226       C  0.10960732  0.86976840  0.76496731     0.10110
S2227       S  0.15165007  0.95918261  0.71051430    -0.33240
S2228       S  0.11134971  0.83034767  0.78549619    -0.33250
H2229       H  0.12346050  0.81345150  0.75763157     0.28120
H2230       H  0.12985410  0.95921464  0.68292394     0.28120
H2231       H  0.10950369  0.90898372  0.69088596     0.18710
H2232       H  0.12036000  0.89490332  0.81084159     0.18720
C2233       C  0.12740629  0.98999218  0.77627048    -0.07120
C2234       C  0.09202774  0.99102816  0.77280241    -0.18240
C2235       C  0.07549033  0.01416704  0.75240618     0.10080
C2236       C  0.09449329  0.03820063  0.73510533    -0.07040
C2237       C  0.12947365  0.03934445  0.74120524    -0.18280
C2238       C  0.14626088  0.01555731  0.76062550     0.10110
S2239       S  0.03025588  0.01072075  0.74989015    -0.33240
S2240       S  0.19176551  0.01732352  0.75942856    -0.33250
H2241       H  0.19846534  0.98599944  0.77237195     0.28120
H2242       H  0.02376592  0.04063250  0.73367897     0.28120
H2243       H  0.07709890  0.97205117  0.78468956     0.18710
H2244       H  0.14448446  0.05760214  0.72845353     0.18720
C2245       C  0.17628267  0.98572887  0.83972929    -0.07120
C2246       C  0.19946230  0.98050245  0.86627491    -0.18240
C2247       C  0.21573771  0.00663614  0.88284933     0.10080
C2248       C  0.21668738  0.03828361  0.86842050    -0.07040
C2249       C  0.19410437  0.04342041  0.84186144    -0.18280
C2250       C  0.16915746  0.01951457  0.83407371     0.10110
S2251       S  0.23445793  0.99813664  0.92239793    -0.33240
S2252       S  0.12625552  0.03301093  0.83703816    -0.33250
H2253       H  0.13346767  0.06659351  0.83133219     0.28120
H2254       H  0.22353580  0.02858954  0.93524057     0.28120
H2255       H  0.20557928  0.95647040  0.87545085     0.18710
H2256       H  0.19384880  0.06677233  0.82890379     0.18720
C2257       C  0.17533098  0.92251896  0.82964753    -0.07120
C2258       C  0.16855507  0.91144415  0.86192687    -0.18240
C2259       C  0.19195047  0.89135392  0.87901907     0.10080
C2260       C  0.21779905  0.87487385  0.86103128    -0.07040
C2261       C  0.21728510  0.87901155  0.82632319    -0.18280
C2262       C  0.19934233  0.90480567  0.81119810     0.10110
S2263       S  0.19019844  0.89467845  0.92337574    -0.33240
S2264       S  0.21070807  0.91699146  0.76982865    -0.33250
H2265       H  0.23657533  0.89378308  0.76496416     0.28120
H2266       H  0.22490038  0.89349775  0.92855188     0.28120
H2267       H  0.14959843  0.92445925  0.87600929     0.18710
H2268       H  0.23481332  0.86511578  0.81144309     0.18720
C2269       C  0.99449672  0.13429846  0.77180910    -0.07120
C2270       C  0.01467409  0.10857335  0.78399768    -0.18240
C2271       C  0.04273941  0.09711474  0.76615185     0.10080
C2272       C  0.04722080  0.10676625  0.73266228    -0.07040
C2273       C  0.03054961  0.13647175  0.72362288    -0.18280
C2274       C  0.00488433  0.15035506  0.74240854     0.10110
S2275       S  0.07670912  0.08323657  0.79158232    -0.33240
S2276       S  0.98280580  0.18508321  0.72377455    -0.33250
H2277       H  0.95756493  0.18960706  0.74724107     0.28120
H2278       H  0.10169758  0.09720326  0.77145797     0.28120
H2279       H  0.00963839  0.09872120  0.80834279     0.18710
H2280       H  0.03542518  0.14842716  0.70034662     0.18720
C2281       C  0.93234454  0.12148356  0.76889096    -0.07120
C2282       C  0.93790158  0.11119493  0.73582070    -0.18240
C2283       C  0.91579306  0.09114648  0.71840674     0.10080
C2284       C  0.88259098  0.08753146  0.72944714    -0.07040
C2285       C  0.87733373  0.09376487  0.76348464    -0.18280
C2286       C  0.90411349  0.10586023  0.78380543     0.10110
S2287       S  0.93257055  0.06942268  0.68314969    -0.33240
S2288       S  0.90206720  0.09841768  0.82761081    -0.33250
H2289       H  0.93715905  0.09606676  0.83160523     0.28120
H2290       H  0.90955044  0.04298194  0.68520386     0.28120
H2291       H  0.96058121  0.11600573  0.72278024     0.18710
H2292       H  0.85326937  0.08853391  0.77456144     0.18720
C2293       C  0.92690746  0.18770401  0.82031216    -0.07120
C2294       C  0.89283522  0.17752873  0.81854088    -0.18240
C2295       C  0.86644119  0.19473579  0.83466033     0.10080
C2296       C  0.87382780  0.22333606  0.85408657    -0.07040
C2297       C  0.90767967  0.23345077  0.85517457    -0.18280
C2298       C  0.93172998  0.21957535  0.83453977     0.10110
S2299       S  0.82460436  0.17803573  0.82868728    -0.33240
S2300       S  0.96256690  0.24860574  0.81959848    -0.33250
H2301       H  0.96403275  0.23449766  0.78786568     0.28120
H2302       H  0.80686899  0.20087256  0.84768550     0.28120
H2303       H  0.88529252  0.15797135  0.80276114     0.18710
H2304       H  0.91449858  0.25614807  0.86781854     0.18720
C2305       C  0.99077292  0.17837057  0.82829434    -0.07120
C2306       C  0.01655947  0.19304024  0.80970203    -0.18240
C2307       C  0.04293816  0.21098015  0.82391086     0.10080
C2308       C  0.04281696  0.21839854  0.85805278    -0.07040
C2309       C  0.01860210  0.20232916  0.87761611    -0.18280
C2310       C  0.99351187  0.18166401  0.86332296     0.10110
S2311       S  0.07474382  0.22552599  0.79590762    -0.33240
S2312       S  0.96384566  0.16284005  0.89098078    -0.33250
H2313       H  0.95446727  0.13722859  0.86934115     0.28120
H2314       H  0.10028423  0.22851563  0.81977042     0.28120
H2315       H  0.01472381  0.19427294  0.78343645     0.18710
H2316       H  0.01841505  0.20678918  0.90398682     0.18720
C2317       C  0.69414754  0.09633356  0.06391858    -0.07120
C2318       C  0.72875455  0.09506671  0.07300801    -0.18240
C2319       C  0.75453858  0.10618512  0.05172214     0.10080
C2320       C  0.74577092  0.12279554  0.02207597    -0.07040
C2321       C  0.71183812  0.12934878  0.01624005    -0.18280
C2322       C  0.68641937  0.11392756  0.03395183     0.10110
S2323       S  0.79742745  0.09758469  0.06387796    -0.33240
S2324       S  0.64553811  0.11602130  0.01396060    -0.33250
H2325       H  0.65655040  0.12077380  0.98136132     0.28120
H2326       H  0.81242006  0.10295905  0.03313206     0.28120
H2327       H  0.73650643  0.08497270  0.09641635     0.18710
H2328       H  0.70513045  0.14383383  0.99464319     0.18720
C2329       C  0.75414150  0.11240195  0.96146706    -0.07120
C2330       C  0.74507080  0.13008261  0.93253357    -0.18240
C2331       C  0.72187219  0.11742767  0.90932909     0.10080
C2332       C  0.70307684  0.08878579  0.91695014    -0.07040
C2333       C  0.71283794  0.07035169  0.94473254    -0.18280
C2334       C  0.74047115  0.07987527  0.96427147     0.10110
S2335       S  0.71743554  0.13944233  0.87084148    -0.33240
S2336       S  0.75615258  0.04986146  0.99344281    -0.33250
H2337       H  0.78878036  0.06334416  0.99446726     0.28120
H2338       H  0.70351157  0.11289599  0.85283370     0.28120
H2339       H  0.75418353  0.15447041  0.92758022     0.18710
H2340       H  0.69994297  0.04734746  0.95014352     0.18720
C2341       C  0.80414688  0.17209231  0.02462191    -0.07120
C2342       C  0.78164742  0.18395211  0.04875036    -0.18240
C2343       C  0.79275854  0.20370963  0.07542868     0.10080
C2344       C  0.82567957  0.21720192  0.07567427    -0.07040
C2345       C  0.84731257  0.20646045  0.05083555    -0.18280
C2346       C  0.83821770  0.18201728  0.02789782     0.10110
S2347       S  0.76401335  0.20975632  0.10878608    -0.33240
S2348       S  0.87108004  0.16440738  0.00301844    -0.33250
H2349       H  0.89856883  0.17826585  0.02029682     0.28120
H2350       H  0.78898966  0.20362059  0.13276177     0.28120
H2351       H  0.75511523  0.17857261  0.04708221     0.18710
H2352       H  0.87097958  0.21831267  0.04761588     0.18720
C2353       C  0.81381446  0.22108759  0.91121907    -0.07120
C2354       C  0.83241485  0.19131870  0.91476335    -0.18240
C2355       C  0.82381890  0.16692975  0.93838959     0.10080
C2356       C  0.79963400  0.17446448  0.96285849    -0.07040
C2357       C  0.78081909  0.20335571  0.95909907    -0.18280
C2358       C  0.78508885  0.22429642  0.93219452     0.10110
S2359       S  0.84404520  0.12700124  0.93503643    -0.33240
S2360       S  0.74974466  0.25127025  0.92471030    -0.33250
H2361       H  0.74313302  0.23698324  0.89365793     0.28120
H2362       H  0.82833455  0.11163070  0.96185605     0.28120
H2363       H  0.85362759  0.18624247  0.89932314     0.18710
H2364       H  0.76038241  0.20814809  0.97606176     0.18720
C2365       C  0.12857169  0.72751460  0.02337143    -0.07120
C2366       C  0.11548268  0.74051733  0.05313780    -0.18240
C2367       C  0.10443998  0.71940972  0.07903300     0.10080
C2368       C  0.09897627  0.68493026  0.07284173    -0.07040
C2369       C  0.11084197  0.67296849  0.04233916    -0.18280
C2370       C  0.12836642  0.69256775  0.02020681     0.10110
S2371       S  0.10335233  0.73753341  0.11959558    -0.33240
S2372       S  0.15359094  0.67014072  0.99109571    -0.33250
H2373       H  0.18300785  0.68700689  0.00087147     0.28120
H2374       H  0.11235697  0.70816529  0.13609503     0.28120
H2375       H  0.11576705  0.76701080  0.05726285     0.18710
H2376       H  0.10909363  0.64698352  0.03611078     0.18720
C2377       C  0.12427579  0.73754516  0.96190949    -0.07120
C2378       C  0.08885951  0.73502146  0.96160484    -0.18240
C2379       C  0.07132804  0.71377463  0.93993093     0.10080
C2380       C  0.08955531  0.69468478  0.91660541    -0.07040
C2381       C  0.12410654  0.70187139  0.91306813    -0.18280
C2382       C  0.14184803  0.72227486  0.93547703     0.10110
S2383       S  0.02625171  0.71228277  0.94537557    -0.33240
S2384       S  0.18702401  0.72294053  0.93079242    -0.33250
H2385       H  0.19545390  0.72790066  0.96407108     0.28120
H2386       H  0.01847848  0.68819869  0.92187157     0.28120
H2387       H  0.07480239  0.74757881  0.98075009     0.18710
H2388       H  0.13834057  0.68853156  0.89462723     0.18720
C2389       C  0.21781091  0.81297984  0.08204255    -0.07120
C2390       C  0.20011661  0.83523676  0.06156718    -0.18240
C2391       C  0.17646542  0.82397841  0.03777831     0.10080
C2392       C  0.17245680  0.78942687  0.03141221    -0.07040
C2393       C  0.18895225  0.76747417  0.05296160    -0.18280
C2394       C  0.20944056  0.77880749  0.07895992     0.10110
S2395       S  0.15476272  0.85495175  0.01370118    -0.33240
S2396       S  0.22486024  0.74778893  0.10691763    -0.33250
H2397       H  0.21286480  0.76513608  0.13456386     0.28120
H2398       H  0.12797651  0.83417112  0.00402496     0.28120
H2399       H  0.20578614  0.86145809  0.06290900     0.18710
H2400       H  0.18756872  0.74104592  0.04861901     0.18720
C2401       C  0.22585606  0.82523914  0.92459800    -0.07120
C2402       C  0.19266148  0.81673767  0.91477040    -0.18240
C2403       C  0.16916708  0.80380439  0.93804201     0.10080
C2404       C  0.18101174  0.79198284  0.96930320    -0.07040
C2405       C  0.21516196  0.79775195  0.97670999    -0.18280
C2406       C  0.23483176  0.81832080  0.95763970     0.10110
S2407       S  0.12484926  0.80616690  0.92854447    -0.33240
S2408       S  0.26815929  0.83922410  0.97940184    -0.33250
H2409       H  0.25957139  0.87050002  0.96692451     0.28120
H2410       H  0.12803115  0.82203394  0.89781201     0.28120
H2411       H  0.18454867  0.82199664  0.88978550     0.18710
H2412       H  0.22604071  0.78954924  0.99986882     0.18720
C2413       C  0.25166604  0.49496236  0.65575834    -0.07120
C2414       C  0.24752598  0.49370212  0.62111270    -0.18240
C2415       C  0.22362865  0.51336572  0.60464451     0.10080
C2416       C  0.20625542  0.53813525  0.62239926    -0.07040
C2417       C  0.21657257  0.54475270  0.65475962    -0.18280
C2418       C  0.23689129  0.52263686  0.67229563     0.10110
S2419       S  0.21474627  0.50241341  0.56240907    -0.33240
S2420       S  0.23423844  0.52884744  0.71585643    -0.33250
H2421       H  0.22927172  0.49544218  0.72333688     0.28120
H2422       H  0.18935266  0.52569889  0.55626874     0.28120
H2423       H  0.25917315  0.47365739  0.60748342     0.18710
H2424       H  0.20420399  0.56458093  0.66811715     0.18720
C2425       C  0.24017951  0.43360437  0.66003814    -0.07120
C2426       C  0.25413643  0.40399760  0.64772767    -0.18240
C2427       C  0.23348468  0.37677952  0.63950960     0.10080
C2428       C  0.19821150  0.38169656  0.63513064    -0.07040
C2429       C  0.18520240  0.41233314  0.64572191    -0.18280
C2430       C  0.20483383  0.43623494  0.66063130     0.10110
S2431       S  0.25333698  0.33686790  0.64274075    -0.33240
S2432       S  0.18200600  0.46730233  0.68293400    -0.33250
H2433       H  0.19078770  0.45295684  0.71346644     0.28120
H2434       H  0.22430825  0.32086270  0.65422767     0.28120
H2435       H  0.28117576  0.40085828  0.64758169     0.18710
H2436       H  0.15867457  0.41781378  0.64453043     0.18720
C2437       C  0.30054578  0.42436758  0.70565186    -0.07120
C2438       C  0.27685405  0.40242941  0.71937817    -0.18240
C2439       C  0.28708493  0.37515093  0.73816907     0.10080
C2440       C  0.32059550  0.37342020  0.74985102    -0.07040
C2441       C  0.34465057  0.39361546  0.73486001    -0.18280
C2442       C  0.33514939  0.41739299  0.71143841     0.10110
S2443       S  0.25693131  0.34236597  0.74442951    -0.33240
S2444       S  0.36844815  0.43824331  0.69019701    -0.33250
H2445       H  0.35021535  0.43987066  0.66031944     0.28120
H2446       H  0.28089408  0.31804463  0.75258472     0.28120
H2447       H  0.25017087  0.40640868  0.71604653     0.18710
H2448       H  0.37095524  0.39109514  0.74156342     0.18720
C2449       C  0.30224009  0.48538484  0.71224096    -0.07120
C2450       C  0.29009383  0.48574445  0.74440193    -0.18240
C2451       C  0.29516704  0.51297599  0.76450665     0.10080
C2452       C  0.32232689  0.53530538  0.75794435    -0.07040
C2453       C  0.33852553  0.53140978  0.72719933    -0.18280
C2454       C  0.32609659  0.50947422  0.70293299     0.10110
S2455       S  0.26188448  0.51907204  0.79425576    -0.33240
S2456       S  0.34246234  0.51348754  0.66167024    -0.33250
H2457       H  0.32120079  0.49048274  0.64602512     0.28120
H2458       H  0.25968871  0.55329579  0.78793556     0.28120
H2459       H  0.27176526  0.46729721  0.75183262     0.18710
H2460       H  0.36084747  0.54485432  0.72131587     0.18720
C2461       C  0.37466926  0.20179196  0.63309716    -0.07120
C2462       C  0.37373793  0.20960757  0.66687576    -0.18240
C2463       C  0.39766605  0.23059964  0.68137461     0.10080
C2464       C  0.42045064  0.24800347  0.66084346    -0.07040
C2465       C  0.41708621  0.24456075  0.62645412    -0.18280
C2466       C  0.39578543  0.22068319  0.61245282     0.10110
S2467       S  0.40048019  0.22893731  0.72585867    -0.33240
S2468       S  0.39753897  0.21383477  0.56858936    -0.33250
H2469       H  0.42019730  0.23943531  0.56093299     0.28120
H2470       H  0.43553947  0.23153839  0.72788863     0.28120
H2471       H  0.35671552  0.19643578  0.68284064     0.18710
H2472       H  0.43435154  0.25795279  0.61077920     0.18720
C2473       C  0.48236464  0.23998500  0.66138344    -0.07120
C2474       C  0.47772063  0.20636683  0.66768066    -0.18240
C2475       C  0.49777254  0.18189420  0.65431964     0.10080
C2476       C  0.52825035  0.19071534  0.63743327    -0.07040
C2477       C  0.53526963  0.22517530  0.63502256    -0.18280
C2478       C  0.51153039  0.24956729  0.64409551     0.10110
S2479       S  0.48060576  0.14059279  0.66036108    -0.33240
S2480       S  0.51941645  0.29158711  0.63131995    -0.33250
H2481       H  0.48554141  0.30154115  0.63088763     0.28120
H2482       H  0.44645853  0.14930161  0.66295045     0.28120
H2483       H  0.45677070  0.19882632  0.68275592     0.18710
H2484       H  0.55863103  0.23376534  0.62489431     0.18720
C2485       C  0.49040152  0.30183469  0.70465117    -0.07120
C2486       C  0.49035912  0.33650180  0.70880105    -0.18240
C2487       C  0.50788282  0.35058769  0.73545969     0.10080
C2488       C  0.53503367  0.33290820  0.74964125    -0.07040
C2489       C  0.54166995  0.30091405  0.73796024    -0.18280
C2490       C  0.51670858  0.28371154  0.72045570     0.10110
S2491       S  0.49072215  0.38739224  0.75444325    -0.33240
S2492       S  0.51495363  0.24016883  0.72936846    -0.33250
H2493       H  0.48797376  0.24429728  0.75121346     0.28120
H2494       H  0.46015385  0.38809599  0.73666838     0.28120
H2495       H  0.47056762  0.35076145  0.69699581     0.18710
H2496       H  0.56253177  0.28713847  0.74844623     0.18720
C2497       C  0.42743015  0.30117675  0.71362876    -0.07120
C2498       C  0.43374756  0.30662541  0.74736935    -0.18240
C2499       C  0.41054242  0.32179210  0.76765856     0.10080
C2500       C  0.37636496  0.32300815  0.75741308    -0.07040
C2501       C  0.36927213  0.31802223  0.72355098    -0.18280
C2502       C  0.39534076  0.31059858  0.70105859     0.10110
S2503       S  0.42560133  0.33661363  0.80737455    -0.33240
S2504       S  0.38811143  0.31692428  0.65746761    -0.33250
H2505       H  0.35481575  0.32840344  0.66003203     0.28120
H2506       H  0.46029182  0.33325288  0.80165207     0.28120
H2507       H  0.45783244  0.30003580  0.75805960     0.18710
H2508       H  0.34372547  0.32087967  0.71459829     0.18720
C2509       C  0.62124277  0.42479090  0.27377597    -0.07120
C2510       C  0.60991060  0.39449946  0.28725246    -0.18240
C2511       C  0.60105100  0.36738737  0.26643234     0.10080
C2512       C  0.59496316  0.37299580  0.23215909    -0.07040
C2513       C  0.60242529  0.40488028  0.22023615    -0.18280
C2514       C  0.61927036  0.42817170  0.23910059     0.10110
S2515       S  0.60400548  0.32613117  0.28317505    -0.33240
S2516       S  0.64239288  0.45838251  0.21582611    -0.33250
H2517       H  0.67348188  0.44368879  0.22358314     0.28120
H2518       H  0.61521799  0.33520900  0.31499193     0.28120
H2519       H  0.61071345  0.39099835  0.31368044     0.18710
H2520       H  0.59882693  0.41120996  0.19457917     0.18720
C2521       C  0.58782789  0.53445720  0.24465537    -0.07120
C2522       C  0.62216933  0.53762084  0.25258449    -0.18240
C2523       C  0.63921968  0.51309082  0.27034725     0.10080
C2524       C  0.62042082  0.48659792  0.28428556    -0.07040
C2525       C  0.58505460  0.48836894  0.28274300    -0.18280
C2526       C  0.56850140  0.51109950  0.26228867     0.10110
S2527       S  0.68451954  0.51465848  0.26717298    -0.33240
S2528       S  0.52347266  0.50617189  0.25858246    -0.33250
H2529       H  0.51737123  0.52744217  0.23217287     0.28120
H2530       H  0.68977830  0.48036249  0.26727412     0.28120
H2531       H  0.63692985  0.55627937  0.24001908     0.18710
H2532       H  0.57028539  0.46919022  0.29452558     0.18720
C2533       C  0.67733058  0.47857945  0.33366891    -0.07120
C2534       C  0.71184893  0.47236821  0.33312372    -0.18240
C2535       C  0.73469769  0.49141589  0.35070960     0.10080
C2536       C  0.72490677  0.52277630  0.36435779    -0.07040
C2537       C  0.69019933  0.53069992  0.36213064    -0.18280
C2538       C  0.66620995  0.50776543  0.34980430     0.10110
S2539       S  0.77456752  0.47060383  0.35640175    -0.33240
S2540       S  0.62252945  0.51663991  0.35735508    -0.33250
H2541       H  0.61151784  0.48354382  0.35628006     0.28120
H2542       H  0.77416958  0.47519503  0.39065317     0.28120
H2543       H  0.72095941  0.44996329  0.32139797     0.18710
H2544       H  0.68099392  0.55415992  0.37093781     0.18720
C2545       C  0.66524930  0.41794513  0.33776149    -0.07120
C2546       C  0.66839990  0.42067607  0.37232978    -0.18240
C2547       C  0.69583553  0.40595760  0.38819101     0.10080
C2548       C  0.71110189  0.37782883  0.37377825    -0.07040
C2549       C  0.69937969  0.36792412  0.34239775    -0.18280
C2550       C  0.68180218  0.39064642  0.32247680     0.10110
S2551       S  0.71510028  0.43088721  0.41990258    -0.33240
S2552       S  0.68949174  0.38704476  0.27880988    -0.33250
H2553       H  0.69497245  0.42103391  0.27418989     0.28120
H2554       H  0.74743526  0.42717778  0.40715990     0.28120
H2555       H  0.65640673  0.44139113  0.38463716     0.18710
H2556       H  0.71015248  0.34615259  0.33093672     0.18720
C2557       C  0.48716154  0.61749917  0.27681768    -0.07120
C2558       C  0.47984871  0.61655040  0.24303038    -0.18240
C2559       C  0.50054158  0.60081780  0.22075880     0.10080
C2560       C  0.53293353  0.58938650  0.23060642    -0.07040
C2561       C  0.54194129  0.59327290  0.26426176    -0.18280
C2562       C  0.51875430  0.60507029  0.28773987     0.10110
S2563       S  0.48079185  0.59311916  0.18150678    -0.33240
S2564       S  0.53064091  0.60105649  0.33062889    -0.33250
H2565       H  0.49813930  0.60343791  0.34366675     0.28120
H2566       H  0.48559353  0.55866361  0.18398721     0.28120
H2567       H  0.45600019  0.62620029  0.23403650     0.18710
H2568       H  0.56668763  0.58625374  0.27286624     0.18720
C2569       C  0.42460884  0.61413343  0.28964677    -0.07120
C2570       C  0.39562305  0.63350896  0.28384588    -0.18240
C2571       C  0.36984051  0.62332078  0.26292175     0.10080
C2572       C  0.37289470  0.59335057  0.24560484    -0.07040
C2573       C  0.39839807  0.57127012  0.25510560    -0.18280
C2574       C  0.42275029  0.58060439  0.27865944     0.10110
S2575       S  0.33286538  0.64904313  0.26140209    -0.33240
S2576       S  0.45185948  0.54924797  0.29224998    -0.33250
H2577       H  0.45865338  0.56474250  0.32269396     0.28120
H2578       H  0.31056315  0.62310097  0.25355333     0.28120
H2579       H  0.39197248  0.65749994  0.29364698     0.18710
H2580       H  0.39997005  0.54713567  0.24349618     0.18720
C2581       C  0.43406873  0.67715986  0.33030101    -0.07120
C2582       C  0.42317908  0.66821879  0.36170589    -0.18240
C2583       C  0.40638957  0.69120755  0.38148264     0.10080
C2584       C  0.39058272  0.71938776  0.36662792    -0.07040
C2585       C  0.39681084  0.72445698  0.33272726    -0.18280
C2586       C  0.42073306  0.70611648  0.31576946     0.10110
S2587       S  0.41798578  0.68706166  0.42406388    -0.33240
S2588       S  0.43119469  0.71997693  0.27491931    -0.33250
H2589       H  0.42832645  0.68853986  0.26026552     0.28120
H2590       H  0.42454260  0.72068557  0.42872814     0.28120
H2591       H  0.43312251  0.64584807  0.37286336     0.18710
H2592       H  0.38512502  0.74479044  0.31961338     0.18720
C2593       C  0.49627423  0.67287008  0.32623255    -0.07120
C2594       C  0.50224429  0.67435833  0.36063180    -0.18240
C2595       C  0.52528882  0.69659543  0.37469105     0.10080
C2596       C  0.54659307  0.71480893  0.35386342    -0.07040
C2597       C  0.54423345  0.70943891  0.31956496    -0.18280
C2598       C  0.51881157  0.69003615  0.30536020     0.10110
S2599       S  0.52387525  0.70396534  0.41860714    -0.33240
S2600       S  0.51688060  0.69094621  0.26082620    -0.33250
H2601       H  0.48387228  0.68038653  0.25703580     0.28120
H2602       H  0.49997855  0.67956392  0.42647198     0.28120
H2603       H  0.48684738  0.65987940  0.37692879     0.18710
H2604       H  0.56049050  0.72299622  0.30318968     0.18720
C2605       C  0.20703504  0.58877926  0.41499211    -0.07120
C2606       C  0.20381165  0.57662800  0.44704146    -0.18240
C2607       C  0.23032039  0.57886133  0.46926887     0.10080
C2608       C  0.25575431  0.60277607  0.46480901    -0.07040
C2609       C  0.26254373  0.60999582  0.43146855    -0.18280
C2610       C  0.23839179  0.60342919  0.40630935     0.10110
S2611       S  0.23437832  0.54590286  0.49832798    -0.33240
S2612       S  0.24949924  0.61542529  0.36498571    -0.33250
H2613       H  0.21784212  0.61133611  0.35076812     0.28120
H2614       H  0.26970988  0.54576232  0.49714599     0.28120
H2615       H  0.18231638  0.56152323  0.45349176     0.18710
H2616       H  0.28644283  0.62034200  0.42458048     0.18720
C2617       C  0.24549570  0.61868203  0.52485834    -0.07120
C2618       C  0.21194513  0.62838534  0.52127004    -0.18240
C2619       C  0.18680345  0.61345356  0.53984344     0.10080
C2620       C  0.19532631  0.59501713  0.56894571    -0.07040
C2621       C  0.23004383  0.59193416  0.57621572    -0.18280
C2622       C  0.25455322  0.59932149  0.55268733     0.10110
S2623       S  0.14606225  0.61422530  0.51993561    -0.33240
S2624       S  0.29406944  0.57759909  0.55742051    -0.33250
H2625       H  0.30715377  0.58477074  0.52613993     0.28120
H2626       H  0.14362229  0.57942094  0.51954774     0.28120
H2627       H  0.20472566  0.64261488  0.49961928     0.18710
H2628       H  0.23897952  0.58167788  0.59903973     0.18720
C2629       C  0.29139756  0.67273530  0.52584597    -0.07120
C2630       C  0.30969127  0.66087213  0.55331226    -0.18240
C2631       C  0.31699552  0.68098228  0.58086390     0.10080
C2632       C  0.31339800  0.71570156  0.57808598    -0.07040
C2633       C  0.29155572  0.72665854  0.55224715    -0.18280
C2634       C  0.27982089  0.70560559  0.52713425     0.10110
S2635       S  0.32302893  0.66000352  0.61962460    -0.33240
S2636       S  0.25035284  0.72129748  0.49671327    -0.33250
H2637       H  0.24816270  0.75394454  0.50873551     0.28120
H2638       H  0.31273669  0.68713140  0.63897378     0.28120
H2639       H  0.31914769  0.63609663  0.55335378     0.18710
H2640       H  0.28394235  0.75221692  0.55055320     0.18720
C2641       C  0.30362288  0.66673420  0.46517148    -0.07120
C2642       C  0.28483770  0.68002046  0.43857538    -0.18240
C2643       C  0.30025048  0.69986489  0.41443255     0.10080
C2644       C  0.33269220  0.71332217  0.42071161    -0.07040
C2645       C  0.34924633  0.70282089  0.44948250    -0.18280
C2646       C  0.33752681  0.67623748  0.46794937     0.10110
S2647       S  0.27707117  0.70701030  0.37677366    -0.33240
S2648       S  0.36675368  0.65586098  0.49520943    -0.33250
H2649       H  0.34880845  0.62582054  0.49648484     0.28120
H2650       H  0.30544223  0.71545725  0.35799282     0.28120
H2651       H  0.25821875  0.67463659  0.43631011     0.18710
H2652       H  0.37153525  0.71524188  0.45820289     0.18720
C2653       C  0.61487163  0.23946214  0.53252904    -0.07120
C2654       C  0.57992478  0.23901379  0.53805992    -0.18240
C2655       C  0.56573672  0.21682838  0.56073246     0.10080
C2656       C  0.58718379  0.19931618  0.58262012    -0.07040
C2657       C  0.62195091  0.20474965  0.58086762    -0.18280
C2658       C  0.63585933  0.22073692  0.55391907     0.10110
S2659       S  0.52134580  0.20763609  0.55759489    -0.33240
S2660       S  0.67768434  0.20738960  0.54377995    -0.33250
H2661       H  0.66711155  0.18953149  0.51578245     0.28120
H2662       H  0.51311524  0.23183616  0.53393000     0.28120
H2663       H  0.56367537  0.25222441  0.52100756     0.18710
H2664       H  0.63871679  0.19070837  0.59667343     0.18720
C2665       C  0.58285594  0.19114288  0.42023978    -0.07120
C2666       C  0.58942701  0.22511776  0.41433084    -0.18240
C2667       C  0.59944815  0.24679908  0.43996755     0.10080
C2668       C  0.61023005  0.23336820  0.47061383    -0.07040
C2669       C  0.60467474  0.19945526  0.47574672    -0.18280
C2670       C  0.58822688  0.17972365  0.45299097     0.10110
S2671       S  0.59454557  0.29052886  0.43249534    -0.33240
S2672       S  0.57393940  0.14097957  0.46957161    -0.33250
H2673       H  0.54131170  0.14390186  0.45689600     0.28120
H2674       H  0.59141447  0.29927056  0.46597141     0.28120
H2675       H  0.58664132  0.23539625  0.39000140     0.18710
H2676       H  0.61135581  0.18790503  0.49894172     0.18720
C2677       C  0.66487700  0.28876431  0.46509571    -0.07120
C2678       C  0.66969417  0.32313800  0.46647585    -0.18240
C2679       C  0.69559906  0.33814569  0.44896681     0.10080
C2680       C  0.71050718  0.32135596  0.42210854    -0.07040
C2681       C  0.70122192  0.28805490  0.41673678    -0.18280
C2682       C  0.68106779  0.27088081  0.43943392     0.10110
S2683       S  0.71630307  0.37169969  0.46999150    -0.33240
S2684       S  0.68168717  0.22634661  0.43637049    -0.33250
H2685       H  0.68249348  0.22089246  0.47045716     0.28120
H2686       H  0.68759640  0.38427697  0.48577715     0.28120
H2687       H  0.65839944  0.33670761  0.48668087     0.18710
H2688       H  0.71369390  0.27407369  0.39753588     0.18720
C2689       C  0.67326714  0.28365167  0.52607538    -0.07120
C2690       C  0.70702115  0.27480063  0.52370411    -0.18240
C2691       C  0.72930465  0.27954309  0.54962518     0.10080
C2692       C  0.72051890  0.30054515  0.57665496    -0.07040
C2693       C  0.68586466  0.30650064  0.58084969    -0.18280
C2694       C  0.66226474  0.29932098  0.55547567     0.10110
S2695       S  0.76443167  0.25132754  0.54880189    -0.33240
S2696       S  0.61981309  0.31386686  0.56105913    -0.33250
H2697       H  0.61134314  0.31552338  0.52734845     0.28120
H2698       H  0.75646734  0.23803033  0.57980964     0.28120
H2699       H  0.71537686  0.26060337  0.50254218     0.18710
H2700       H  0.67706535  0.31843430  0.60298630     0.18720
C2701       C  0.18430001  0.92588399  0.16072134    -0.07120
C2702       C  0.21882690  0.93145545  0.15719159    -0.18240
C2703       C  0.23885659  0.91159090  0.13760263     0.10080
C2704       C  0.22816466  0.87936356  0.12763285    -0.07040
C2705       C  0.19373188  0.87205427  0.13292288    -0.18280
C2706       C  0.17129119  0.89617389  0.14610687     0.10110
S2707       S  0.27619653  0.93189095  0.12342512    -0.33240
S2708       S  0.12704796  0.88861975  0.14014065    -0.33250
H2709       H  0.11868642  0.92230635  0.13720268     0.28120
H2710       H  0.26849190  0.92460500  0.09025080     0.28120
H2711       H  0.23013931  0.95389015  0.16686483     0.18710
H2712       H  0.18370281  0.84815729  0.12588205     0.18720
C2713       C  0.13078935  0.98132549  0.22202006    -0.07120
C2714       C  0.11736225  0.01083452  0.20872847    -0.18240
C2715       C  0.10561318  0.03686100  0.22928165     0.10080
C2716       C  0.10154755  0.03158788  0.26400758    -0.07040
C2717       C  0.11577386  0.00189524  0.27636917    -0.18280
C2718       C  0.13207398  0.97875647  0.25680526     0.10110
S2719       S  0.10287800  0.07664118  0.20968616    -0.33240
S2720       S  0.15626650  0.94807693  0.27913477    -0.33250
H2721       H  0.18129278  0.94450187  0.25526997     0.28120
H2722       H  0.11516951  0.09386208  0.23744908     0.28120
H2723       H  0.11739607  0.01437663  0.18223591     0.18710
H2724       H  0.11595894  0.99630506  0.30237505     0.18720
C2725       C  0.17623956  0.98822157  0.16240558    -0.07120
C2726       C  0.17446208  0.99149890  0.12806297    -0.18240
C2727       C  0.19766982  0.01096459  0.11065180     0.10080
C2728       C  0.21990967  0.03289151  0.12786366    -0.07040
C2729       C  0.21616445  0.03429711  0.16252313    -0.18280
C2730       C  0.19714042  0.01080093  0.17988758     0.10110
S2731       S  0.20014446  0.00253500  0.06739835    -0.33240
S2732       S  0.20599746  0.00743464  0.22334632    -0.33250
H2733       H  0.21517288  0.97392801  0.22098144     0.28120
H2734       H  0.18665651  0.97026627  0.06781410     0.28120
H2735       H  0.15814843  0.97462409  0.11455008     0.18710
H2736       H  0.23113888  0.05124710  0.17697088     0.18720
C2737       C  0.12669671  0.91969184  0.21100031    -0.07120
C2738       C  0.14730793  0.89436134  0.22374904    -0.18240
C2739       C  0.13406604  0.86991119  0.24459524     0.10080
C2740       C  0.09949164  0.87037873  0.25273782    -0.07040
C2741       C  0.07835197  0.89219863  0.23541090    -0.18280
C2742       C  0.09142317  0.91664609  0.21475824     0.10110
S2743       S  0.16288581  0.83993204  0.26151978    -0.33240
S2744       S  0.06166154  0.94486187  0.19606637    -0.33250
H2745       H  0.08281694  0.95592314  0.17074480     0.28120
H2746       H  0.13861462  0.81474864  0.26435356     0.28120
H2747       H  0.17427959  0.89549227  0.22039626     0.18710
H2748       H  0.05168838  0.89241967  0.24011893     0.18720
C2749       C  0.02904262  0.22425260  0.13074658    -0.07120
C2750       C  0.03510094  0.18971952  0.13301751    -0.18240
C2751       C  0.01181734  0.16756998  0.14756830     0.10080
C2752       C  0.98395284  0.18025488  0.16526923    -0.07040
C2753       C  0.97893522  0.21471023  0.16418080    -0.18280
C2754       C  0.99835364  0.23555496  0.14470825     0.10110
S2755       S  0.01840829  0.12396766  0.14054062    -0.33240
S2756       S  0.97900041  0.27483183  0.13560142    -0.33250
H2757       H  0.98782867  0.27372670  0.10205233     0.28120
H2758       H  0.98435016  0.11488106  0.14270302     0.28120
H2759       H  0.05757586  0.17920476  0.12327754     0.18710
H2760       H  0.95727272  0.22537689  0.17627758     0.18720
C2761       C  0.93149999  0.12195261  0.22589237    -0.07120
C2762       C  0.89958152  0.11288874  0.21263926    -0.18240
C2763       C  0.87375132  0.10007912  0.23317765     0.10080
C2764       C  0.88199365  0.08834811  0.26543900    -0.07040
C2765       C  0.91524677  0.09372581  0.27630617    -0.18280
C2766       C  0.93706885  0.11435405  0.25967316     0.10110
S2767       S  0.83120645  0.10344478  0.21792478    -0.33240
S2768       S  0.96812838  0.13421644  0.28567889    -0.33250
H2769       H  0.96043810  0.16590008  0.27364166     0.28120
H2770       H  0.81675074  0.10870644  0.24906657     0.28120
H2771       H  0.89363400  0.11783936  0.18705360     0.18710
H2772       H  0.92322044  0.08615638  0.30069311     0.18720
C2773       C  0.04525767  0.09231682  0.25512041    -0.07120
C2774       C  0.04641849  0.12642076  0.24789239    -0.18240
C2775       C  0.02125945  0.14241556  0.22945478     0.10080
C2776       C  0.99460674  0.12342237  0.21522999    -0.07040
C2777       C  0.99714006  0.08847718  0.21749618    -0.18280
C2778       C  0.02112656  0.07289319  0.23815779     0.10110
S2779       S  0.02275019  0.18705497  0.23153572    -0.33240
S2780       S  0.01797396  0.02895806  0.24541623    -0.33250
H2781       H  0.99327917  0.02225933  0.22121569     0.28120
H2782       H  0.98809661  0.19217607  0.23186760     0.28120
H2783       H  0.06501811  0.14175885  0.25995914     0.18710
H2784       H  0.97750404  0.07355469  0.20619859     0.18720
C2785       C  0.87656934  0.21706314  0.13538080    -0.07120
C2786       C  0.87379190  0.20954236  0.16928476    -0.18240
C2787       C  0.89753065  0.18957088  0.18578902     0.10080
C2788       C  0.92153625  0.17142532  0.16731305    -0.07040
C2789       C  0.91975023  0.17419707  0.13267693    -0.18280
C2790       C  0.90241888  0.20065122  0.11785320     0.10110
S2791       S  0.89862849  0.19316229  0.23008825    -0.33240
S2792       S  0.92324891  0.22007537  0.08359265    -0.33250
H2793       H  0.94277931  0.19277274  0.07379899     0.28120
H2794       H  0.93266487  0.20203165  0.23107318     0.28120
H2795       H  0.85606951  0.22282488  0.18424017     0.18710
H2796       H  0.93862945  0.16134021  0.11839730     0.18720
C2797       C  0.10500912  0.22256789  0.91374393    -0.07120
C2798       C  0.12743197  0.23356862  0.93901891    -0.18240
C2799       C  0.14111113  0.21273104  0.96292494     0.10080
C2800       C  0.12969016  0.17990626  0.96528503    -0.07040
C2801       C  0.10797130  0.16800177  0.94029924    -0.18280
C2802       C  0.09916508  0.18763194  0.91278981     0.10110
S2803       S  0.17071621  0.23021654  0.99208079    -0.33240
S2804       S  0.09033574  0.16428840  0.87593028    -0.33250
H2805       H  0.10914050  0.18557974  0.85589091     0.28120
H2806       H  0.18073908  0.25734533  0.97268623     0.28120
H2807       H  0.13443421  0.25922449  0.94149922     0.18710
H2808       H  0.09868421  0.14281678  0.94153650     0.18720
C2809       C  0.17723368  0.12356419  0.03003641    -0.07120
C2810       C  0.18618073  0.09030334  0.02388614    -0.18240
C2811       C  0.21287494  0.07548228  0.04109699     0.10080
C2812       C  0.22228935  0.08771779  0.07257285    -0.07040
C2813       C  0.20848870  0.11826385  0.08216877    -0.18280
C2814       C  0.18992220  0.13795841  0.05999614     0.10110
S2815       S  0.23918277  0.04712015  0.01834379    -0.33240
S2816       S  0.18816394  0.18122445  0.07123098    -0.33250
H2817       H  0.17036390  0.19169788  0.04382554     0.28120
H2818       H  0.21592881  0.03985217  0.99301850     0.28120
H2819       H  0.17754281  0.07878507  0.00117289     0.18710
H2820       H  0.21557079  0.12914923  0.10541219     0.18720
C2821       C  0.08064471  0.21368911  0.07161743    -0.07120
C2822       C  0.10246802  0.18766895  0.08090420    -0.18240
C2823       C  0.11208300  0.16303352  0.05794079     0.10080
C2824       C  0.10926488  0.17007023  0.02385208    -0.07040
C2825       C  0.08246522  0.19195589  0.01563852    -0.18280
C2826       C  0.06710939  0.21225983  0.03931773     0.10110
S2827       S  0.11433695  0.12070122  0.07202732    -0.33240
S2828       S  0.03004115  0.23479215  0.02676929    -0.33250
H2829       H  0.01840289  0.24074924  0.05888912     0.28120
H2830       H  0.11293697  0.12794325  0.10601131     0.28120
H2831       H  0.11044068  0.18523553  0.10635141     0.18710
H2832       H  0.07368825  0.19439061  0.99043546     0.18720
C2833       C  0.22805509  0.10222629  0.92003313    -0.07120
C2834       C  0.24179853  0.11839426  0.94833051    -0.18240
C2835       C  0.22230795  0.13569035  0.97136925     0.10080
C2836       C  0.18668476  0.13450798  0.96961662    -0.07040
C2837       C  0.17276713  0.11838332  0.94180515    -0.18280
C2838       C  0.19274689  0.10637352  0.91575310     0.10110
S2839       S  0.24519812  0.15784559  0.00306339    -0.33240
S2840       S  0.17228605  0.10725505  0.87643466    -0.33250
H2841       H  0.20058616  0.12001582  0.86028051     0.28120
H2842       H  0.22065183  0.18237765  0.00668936     0.28120
H2843       H  0.26857476  0.11867172  0.95289271     0.18710
H2844       H  0.14597345  0.11537170  0.93972308     0.18720
C2845       C  0.48801151  0.25468851  0.34843942    -0.07120
C2846       C  0.48305635  0.23267736  0.37497921    -0.18240
C2847       C  0.50749323  0.20968321  0.38419531     0.10080
C2848       C  0.53559452  0.20549488  0.36359954    -0.07040
C2849       C  0.54377358  0.23156615  0.34223371    -0.18280
C2850       C  0.52217588  0.25894371  0.33985215     0.10110
S2851       S  0.50153695  0.18613636  0.42141966    -0.33240
S2852       S  0.54204185  0.29906574  0.34235957    -0.33250
H2853       H  0.51299741  0.31562943  0.35317470     0.28120
H2854       H  0.47587096  0.20584279  0.43483752     0.28120
H2855       H  0.46015569  0.23185866  0.38828877     0.18710
H2856       H  0.56843367  0.23240693  0.33106922     0.18720
C2857       C  0.42995456  0.29486720  0.27938823    -0.07120
C2858       C  0.43361703  0.28525827  0.24651787    -0.18240
C2859       C  0.41055176  0.29314666  0.22212847     0.10080
C2860       C  0.38070874  0.31118496  0.23059194    -0.07040
C2861       C  0.37464368  0.31586947  0.26471069    -0.18280
C2862       C  0.39964130  0.31033649  0.28874233     0.10110
S2863       S  0.42369815  0.27995374  0.18132832    -0.33240
S2864       S  0.39153939  0.32640840  0.32953976    -0.33250
H2865       H  0.42444296  0.32456653  0.34197409     0.28120
H2866       H  0.44056597  0.25082708  0.19098590     0.28120
H2867       H  0.45587696  0.27187767  0.23929861     0.18710
H2868       H  0.35103131  0.32530692  0.27331169     0.18720
C2869       C  0.42422556  0.24997024  0.33453519    -0.07120
C2870       C  0.40986516  0.25598836  0.36530214    -0.18240
C2871       C  0.39176512  0.23081686  0.38118123     0.10080
C2872       C  0.37740837  0.20424023  0.36229179    -0.07040
C2873       C  0.38390849  0.20479215  0.32804181    -0.18280
C2874       C  0.40955049  0.22452531  0.31486191     0.10110
S2875       S  0.40147962  0.22859559  0.42429238    -0.33240
S2876       S  0.42357335  0.21278999  0.27431630    -0.33250
H2877       H  0.45689544  0.22276381  0.27890899     0.28120
H2878       H  0.40070918  0.26297298  0.43027681     0.28120
H2879       H  0.42065850  0.27588480  0.38000656     0.18710
H2880       H  0.37276736  0.18606848  0.31214183     0.18720
C2881       C  0.49205067  0.29881686  0.28548565    -0.07120
C2882       C  0.51198380  0.27407273  0.27109317    -0.18240
C2883       C  0.53751167  0.28166419  0.24916743     0.10080
C2884       C  0.54236051  0.31471012  0.23877043    -0.07040
C2885       C  0.52278794  0.33978823  0.25313338    -0.18280
C2886       C  0.49825155  0.33225296  0.27670388     0.10110
S2887       S  0.56246184  0.24762274  0.23469989    -0.33240
S2888       S  0.47408871  0.36602108  0.29317050    -0.33250
H2889       H  0.47179894  0.35202892  0.32478728     0.28120
H2890       H  0.59271097  0.26278265  0.24476024     0.28120
H2891       H  0.50703387  0.24827336  0.27626212     0.18710
H2892       H  0.52551006  0.36515858  0.24487658     0.18720
C2893       C  0.24097863  0.42281623  0.32522814    -0.07120
C2894       C  0.21356143  0.40815972  0.30954284    -0.18240
C2895       C  0.20235217  0.37741464  0.31940980     0.10080
C2896       C  0.20576330  0.36900917  0.35300651    -0.07040
C2897       C  0.23212289  0.38445031  0.37092436    -0.18280
C2898       C  0.25251153  0.40855293  0.35540226     0.10110
S2899       S  0.18156520  0.35136677  0.28917711    -0.33240
S2900       S  0.29187483  0.41957547  0.37499901    -0.33250
H2901       H  0.30520220  0.43668240  0.34787192     0.28120
H2902       H  0.18671993  0.32198114  0.30718740     0.28120
H2903       H  0.20164660  0.41986242  0.28866481     0.18710
H2904       H  0.23671009  0.37827177  0.39653311     0.18720
C2905       C  0.28537264  0.48362871  0.26520840    -0.07120
C2906       C  0.30301737  0.50800909  0.28296517    -0.18240
C2907       C  0.31526830  0.53694988  0.26767496     0.10080
C2908       C  0.31145271  0.54129506  0.23262238    -0.07040
C2909       C  0.28945604  0.51840933  0.21699124    -0.18280
C2910       C  0.27902373  0.48931574  0.23152247     0.10110
S2911       S  0.32635570  0.56864607  0.29671106    -0.33240
S2912       S  0.25712972  0.46123390  0.20460299    -0.33250
H2913       H  0.28489814  0.43980729  0.20315403     0.28120
H2914       H  0.29338842  0.58133664  0.29688434     0.28120
H2915       H  0.30665735  0.50477108  0.30933180     0.18710
H2916       H  0.28102067  0.52157123  0.19179147     0.18720
C2917       C  0.23915011  0.48578320  0.32357505    -0.07120
C2918       C  0.24069783  0.49063065  0.35794354    -0.18240
C2919       C  0.22142339  0.51476338  0.37396817     0.10080
C2920       C  0.20450942  0.53922217  0.35518262    -0.07040
C2921       C  0.20621431  0.53664432  0.32052413    -0.18280
C2922       C  0.22010306  0.50893586  0.30487356     0.10110
S2923       S  0.21307101  0.50796421  0.41699567    -0.33240
S2924       S  0.20644459  0.50272905  0.26273836    -0.33250
H2925       H  0.20906081  0.46821037  0.26251589     0.28120
H2926       H  0.24233975  0.48967650  0.42420890     0.28120
H2927       H  0.25393119  0.47308858  0.37298942     0.18710
H2928       H  0.19191438  0.55368702  0.30541182     0.18720
C2929       C  0.32526770  0.36841986  0.24082243    -0.07120
C2930       C  0.29131020  0.36525184  0.24880438    -0.18240
C2931       C  0.27287953  0.39329909  0.25723882     0.10080
C2932       C  0.29007518  0.42114539  0.27090230    -0.07040
C2933       C  0.32548145  0.42100498  0.27016299    -0.18280
C2934       C  0.34303917  0.39643626  0.25295403     0.10110
S2935       S  0.23152812  0.39585632  0.23846326    -0.33240
S2936       S  0.38629611  0.40547063  0.24350053    -0.33250
H2937       H  0.39709265  0.37279808  0.24094865     0.28120
H2938       H  0.22878585  0.36331426  0.22621568     0.28120
H2939       H  0.27789941  0.34372288  0.23988344     0.18710
H2940       H  0.33930570  0.44221846  0.27961785     0.18720
C2941       C  0.20961830  0.32232705  0.58369413    -0.07120
C2942       C  0.21596803  0.28830801  0.58520022    -0.18240
C2943       C  0.23031019  0.27183714  0.55873500     0.10080
C2944       C  0.24596685  0.29053294  0.53340425    -0.07040
C2945       C  0.24585947  0.32539322  0.53603923    -0.18280
C2946       C  0.22623377  0.34151673  0.55978009     0.10110
S2947       S  0.21784986  0.22907389  0.55435231    -0.33240
S2948       S  0.21952177  0.38552823  0.55637241    -0.33250
H2949       H  0.24684559  0.39190502  0.53544585     0.28120
H2950       H  0.21682990  0.22190385  0.58834822     0.28120
H2951       H  0.20316690  0.27376919  0.60364530     0.18710
H2952       H  0.25774563  0.33987026  0.51688630     0.18720
C2953       C  0.29785733  0.23806476  0.46954376    -0.07120
C2954       C  0.27845507  0.22847977  0.44165324    -0.18240
C2955       C  0.29304473  0.21020358  0.41568277     0.10080
C2956       C  0.32477700  0.19498971  0.42084864    -0.07040
C2957       C  0.34069454  0.20004620  0.45120840    -0.18280
C2958       C  0.33100627  0.22581531  0.47157217     0.10110
S2959       S  0.26947014  0.20635407  0.37769197    -0.33240
S2960       S  0.36263430  0.24300875  0.49859585    -0.33250
H2961       H  0.35168356  0.27571150  0.49348836     0.28120
H2962       H  0.29712067  0.19836797  0.35779088     0.28120
H2963       H  0.25214637  0.23490761  0.43974129     0.18710
H2964       H  0.36338909  0.18669945  0.45736904     0.18720
C2965       C  0.29278418  0.23478094  0.53122865    -0.07120
C2966       C  0.28328788  0.20146150  0.53154975    -0.18240
C2967       C  0.28735970  0.18235449  0.55963244     0.10080
C2968       C  0.31076245  0.19223213  0.58465037    -0.07040
C2969       C  0.31843880  0.22644288  0.58572139    -0.18280
C2970       C  0.30953157  0.24793255  0.55957185     0.10110
S2971       S  0.25576766  0.15050025  0.56453444    -0.33240
S2972       S  0.32286816  0.29059164  0.56349692    -0.33250
H2973       H  0.31584830  0.30065150  0.53106818     0.28120
H2974       H  0.25176807  0.15707456  0.59839566     0.28120
H2975       H  0.26790278  0.19178673  0.51144743     0.18710
H2976       H  0.33143399  0.23704869  0.60660298     0.18720
C2977       C  0.20129733  0.32329123  0.42063334    -0.07120
C2978       C  0.18938793  0.31902482  0.45297256    -0.18240
C2979       C  0.20467031  0.29718388  0.47421902     0.10080
C2980       C  0.23915658  0.29021381  0.47115651    -0.07040
C2981       C  0.25458009  0.29997918  0.44125686    -0.18280
C2982       C  0.23463466  0.31184623  0.41443372     0.10110
S2983       S  0.17647686  0.27357825  0.49939451    -0.33240
S2984       S  0.25168835  0.30693643  0.37370299    -0.33250
H2985       H  0.22056720  0.29964418  0.35859116     0.28120
H2986       H  0.19181177  0.24340350  0.49072061     0.28120
H2987       H  0.16459966  0.32710642  0.46005045     0.18710
H2988       H  0.28107176  0.29532948  0.43752921     0.18720
loop_ 
_geom_bond_atom_site_label_1 
_geom_bond_atom_site_label_2 
_geom_bond_distance 
_geom_bond_site_symmetry_2 
_ccdc_geom_bond_type 
C1            C2   1.376       .  D
C1         C2944   1.507       .  S
C1         C2980   1.517       .  S
C2         C2953   1.510       .  S
C2         C2965   1.506       .  S
C3            C4   1.379       .  D
C3         C2905   1.500       .  S
C3         C2932   1.505       .  S
C4         C2893   1.496       .  S
C4         C2917   1.513       .  S
C5            C6   1.381       .  D
C5         C2845   1.543       .  S
C5         C2869   1.519       .  S
C6         C2857   1.497       .  S
C6         C2881   1.501       .  S
C7            C8   1.403       .  D
C7         C2809   1.518   1_556  S
C7         C2836   1.537       .  S
C8         C2800   1.508       .  S
C8         C2824   1.552   1_556  S
C9           C10   1.391       .  D
C9         C2752   1.527       .  S
C9         C2788   1.520       .  S
C10        C2761   1.534       .  S
C10        C2776   1.523       .  S
C11          C12   1.381       .  D
C11        C2701   1.533       .  S
C11        C2725   1.515       .  S
C12        C2713   1.520       .  S
C12        C2737   1.503       .  S
C13          C14   1.372       .  D
C13        C2677   1.504       .  S
C13        C2689   1.504       .  S
C14        C2653   1.504       .  S
C14        C2668   1.510       .  S
C15          C16   1.384       .  D
C15        C2629   1.519       .  S
C15        C2641   1.503       .  S
C16        C2608   1.544       .  S
C16        C2617   1.502       .  S
C17          C18   1.378       .  D
C17        C2581   1.489       .  S
C17        C2593   1.503       .  S
C18        C2557   1.504       .  S
C18        C2569   1.536       .  S
C19          C20   1.375       .  D
C19        C2533   1.511       .  S
C19        C2545   1.514       .  S
C20        C2509   1.517       .  S
C20        C2524   1.505       .  S
C21          C22   1.371       .  D
C21        C2485   1.510       .  S
C21        C2497   1.520       .  S
C22        C2464   1.499       .  S
C22        C2473   1.506       .  S
C23          C24   1.383       .  D
C23        C2437   1.518       .  S
C23        C2449   1.480       .  S
C24        C2413   1.523       .  S
C24        C2425   1.505       .  S
C25          C26   1.397       .  D
C25        C2392   1.528   1_556  S
C25        C2404   1.536       .  S
C26        C2365   1.535   1_556  S
C26        C2377   1.517       .  S
C27          C28   1.391       .  D
C27        C2341   1.523   1_556  S
C27        C2356   1.502       .  S
C28        C2320   1.512   1_556  S
C28        C2329   1.539       .  S
C29          C30   1.415       .  D
C29        C2293   1.557       .  S
C29        C2305   1.542       .  S
C30        C2269   1.512       .  S
C30        C2281   1.548       .  S
C31          C32   1.409       .  D
C31        C2245   1.564       .  S
C31        C2257   1.516       .  S
C32        C2224   1.545       .  S
C32        C2233   1.518       .  S
C33          C34   1.398       .  D
C33        C2197   1.550       .  S
C33        C2209   1.532       .  S
C34        C2173   1.518       .  S
C34        C2185   1.521       .  S
C35          C36   1.398       .  D
C35        C2149   1.529       .  S
C35        C2164   1.508       .  S
C36        C2125   1.542       .  S
C36        C2137   1.521       .  S
N37          N38   1.316       .  A
N37          N43   1.312       .  A
N37         Mn66   2.177       .  S
N38          C45   1.351       .  A
N39          N41   1.310       .  A
N39          N40   1.315       .  A
N39         Mn55   2.173   1_554  S
N40          C46   1.349       .  A
N41          N42   1.320       .  A
N41         Mn66   2.188   1_554  S
N42          C46   1.357       .  A
N43          N44   1.319       .  A
N43         Mn55   2.191       .  S
N44          C45   1.353       .  A
C45        C2065   1.475       .  S
C46        C2041   1.477       .  S
N47          N53   1.320       .  A
N47          N48   1.328       .  A
N47         Mn77   2.242   1_554  S
N48          C56   1.362       .  A
N49          N50   1.314       .  A
N49          N51   1.318       .  A
N49         Mn55   2.165       .  S
N50          C57   1.340       .  A
N51          N52   1.329       .  A
N51         Mn77   2.250       .  S
N52          C57   1.362       .  A
N53          N54   1.313       .  A
N53         Mn55   2.184   1_554  S
N54          C56   1.344       .  A
Mn55        Cl79   2.490       .  S
C56        C2089   1.481       .  S
C57        C2116   1.476       .  S
N58          N59   1.316       .  A
N58          N64   1.313       .  A
N58         Mn66   2.188   1_554  S
N59          C67   1.351       .  A
N60          N62   1.312       .  A
N60          N61   1.320       .  A
N60         Mn78   2.191       .  S
N61          C68   1.352       .  A
N62          N63   1.319       .  A
N62         Mn66   2.177       .  S
N63          C68   1.349       .  A
N64          N65   1.321       .  A
N64         Mn78   2.191   1_554  S
N65          C67   1.353       .  A
Mn66        Cl79   2.580       .  S
C67        C2053   1.484       .  S
C68        C2032   1.473       .  S
N69          N70   1.327       .  A
N69          N75   1.319       .  A
N69         Mn77   2.238       .  S
N70          C80   1.360       .  A
N71          N72   1.317       .  A
N71          N73   1.319       .  A
N71         Mn78   2.179   1_554  S
N72          C81   1.343       .  A
N73          N74   1.330       .  A
N73         Mn77   2.262   1_554  S
N74          C81   1.364       .  A
N75          N76   1.314       .  A
N75         Mn78   2.186       .  S
N76          C80   1.346       .  A
Mn77        Cl79   2.595       .  S
Mn78        Cl79   2.499       .  S
C80        C2077   1.486       .  S
C81        C2101   1.493       .  S
N82          N83   1.322       .  A
N82          N88   1.313       .  A
N82        Mn111   2.209       .  S
N83          C90   1.356       .  A
N84          N86   1.310       .  A
N84          N85   1.321       .  A
N84        Mn100   2.185   1_554  S
N85          C91   1.354       .  A
N86          N87   1.315       .  A
N86        Mn111   2.178   1_554  S
N87          C91   1.350       .  A
N88          N89   1.319       .  A
N88        Mn100   2.184       .  S
N89          C90   1.349       .  A
C90        C1969   1.476       .  S
C91        C1933   1.475       .  S
N92          N98   1.318       .  A
N92          N93   1.327       .  A
N92        Mn122   2.241   1_554  S
N93         C101   1.361       .  A
N94          N95   1.312       .  A
N94          N96   1.319       .  A
N94        Mn100   2.174       .  S
N95         C102   1.341       .  A
N96          N97   1.328       .  A
N96        Mn122   2.238       .  S
N97         C102   1.361       .  A
N98          N99   1.313       .  A
N98        Mn100   2.171   1_554  S
N99         C101   1.343       .  A
Mn100      Cl124   2.498       .  S
C101       C1981   1.474       .  S
C102       C2017   1.473       .  S
N103        N104   1.322       .  A
N103        N109   1.312       .  A
N103       Mn111   2.200   1_554  S
N104        C112   1.356       .  A
N105        N107   1.311       .  A
N105        N106   1.321       .  A
N105       Mn123   2.188   1_556  S
N106        C113   1.353       .  A
N107        N108   1.315       .  A
N107       Mn111   2.180       .  S
N108        C113   1.352       .  A
N109        N110   1.318       .  A
N109       Mn123   2.184       .  S
N110        C112   1.349       .  A
Mn111      Cl124   2.568       .  S
C112       C1945   1.488       .  S
C113       C1957   1.482       .  S
N114        N115   1.332       .  A
N114        N120   1.320       .  A
N114       Mn122   2.254       .  S
N115        C125   1.364       .  A
N116        N117   1.312       .  A
N116        N118   1.318       .  A
N116       Mn123   2.171       .  S
N117        C126   1.343       .  A
N118        N119   1.325       .  A
N118       Mn122   2.228   1_554  S
N119        C126   1.359       .  A
N120        N121   1.312       .  A
N120       Mn123   2.181   1_556  S
N121        C125   1.345       .  A
Mn122      Cl124   2.593       .  S
Mn123      Cl124   2.497   1_554  S
C125       C1993   1.496       .  S
C126       C2005   1.477       .  S
C127        C128   1.400       .  D
C127       C2020   1.509       .  S
C127       C2353   1.540       .  S
C128       C1921   1.514       .  S
C128       C2296   1.519       .  S
C129        C130   1.397       .  D
C129       C1897   1.540       .  S
C129       C2008   1.509       .  S
C130       C1909   1.516       .  S
C130       C2176   1.517       .  S
N131        N132   1.328       .  A
N131        N137   1.319       .  A
N131       Mn160   2.236       .  S
N132        C139   1.362       .  A
N133        N135   1.320       .  A
N133        N134   1.315   1_655  A
N133       Mn149   2.186       .  S
N134        C140   1.344       .  A
N135        N136   1.325   1_655  A
N135       Mn160   2.223       .  S
N136        C140   1.355       .  A
N137        N138   1.309       .  A
N137       Mn149   2.165       .  S
N138        C139   1.340       .  A
C139       C1924   1.481       .  S
C140       C1885   1.466       .  S
N141        N147   1.311       .  A
N141        N142   1.317   1_655  A
N141       Mn171   2.183       .  S
N142        C150   1.353       .  A
N143        N144   1.314       .  A
N143        N145   1.310       .  A
N143       Mn149   2.180       .  S
N144        C151   1.349       .  A
N145        N146   1.322       .  A
N145       Mn171   2.189       .  S
N146        C151   1.357       .  A
N147        N148   1.318   1_655  A
N147       Mn149   2.178       .  S
N148        C150   1.351       .  A
Mn149      Cl173   2.493       .  S
C150       C1837   1.475       .  S
C151       C1813   1.484       .  S
N152        N153   1.326   1_655  A
N152        N158   1.318   1_655  A
N152       Mn160   2.235       .  S
N153        C161   1.361       .  A
N154        N156   1.318       .  A
N154        N155   1.315       .  A
N154       Mn172   2.179       .  S
N155        C162   1.343       .  A
N156        N157   1.328       .  A
N156       Mn160   2.239       .  S
N157        C162   1.361       .  A
N158        N159   1.312       .  A
N158       Mn172   2.173   1_455  S
N159        C161   1.345       .  A
Mn160      Cl173   2.580       .  S
C161       C1861   1.477       .  S
C162       C1873   1.477       .  S
N163        N164   1.313       .  A
N163        N169   1.311       .  A
N163       Mn171   2.166       .  S
N164        C174   1.350       .  A
N165        N166   1.321       .  A
N165        N167   1.311       .  A
N165       Mn172   2.184   1_455  S
N166        C175   1.352       .  A
N167        N168   1.314       .  A
N167       Mn171   2.178   1_455  S
N168        C175   1.352       .  A
N169        N170   1.317       .  A
N169       Mn172   2.174       .  S
N170        C174   1.348       .  A
Mn171      Cl173   2.575       .  S
Mn172      Cl173   2.499       .  S
C174       C1849   1.471       .  S
C175       C1825   1.476       .  S
C176        C177   1.393       .  D
C176       C2080   1.516       .  S
C176       C2797   1.544       .  S
C177       C1888   1.509       .  S
C177       C2308   1.504       .  S
C178        C179   1.385       .  D
C178       C1789   1.513       .  S
C178       C1996   1.517       .  S
C179       C1801   1.514       .  S
C179       C1876   1.508       .  S
C180        C181   1.399       .  D
C180       C1777   1.550       .  S
C180       C1864   1.502       .  S
C181       C2113   1.518       .  S
C181       C2380   1.512       .  S
C182        C183   1.385       .  D
C182       C1984   1.508       .  S
C182       C2344   1.512       .  S
C183       C1768   1.506       .  S
C183       C2785   1.517       .  S
N184        N185   1.327       .  A
N184        N190   1.320       .  A
N184       Mn213   2.232       .  S
N185        C192   1.358       .  A
N186        N188   1.318       .  A
N186        N187   1.313       .  A
N186       Mn202   2.166   1_455  S
N187        C193   1.340       .  A
N188        N189   1.328       .  A
N188       Mn213   2.247   1_455  S
N189        C193   1.362       .  A
N190        N191   1.317       .  A
N190       Mn202   2.201       .  S
N191        C192   1.347       .  A
C192       C1912   1.480       .  S
C193       C1753   1.473       .  S
N194        N200   1.310       .  A
N194        N195   1.313       .  A
N194       Mn224   2.152   1_455  S
N195        C203   1.347       .  A
N196        N197   1.317       .  A
N196        N198   1.311       .  A
N196       Mn202   2.170       .  S
N197        C204   1.351       .  A
N198        N199   1.308       .  A
N198       Mn224   2.147       .  S
N199        C204   1.344       .  A
N200        N201   1.315       .  A
N200       Mn202   2.179   1_455  S
N201        C203   1.352       .  A
Mn202      Cl226   2.502       .  S
C203       C1717   1.467       .  S
C204       C1693   1.446       .  S
N205        N206   1.325   1_655  A
N205        N211   1.319       .  A
N205       Mn213   2.233       .  S
N206        C214   1.360       .  A
N207        N209   1.321       .  A
N207        N208   1.314       .  A
N207       Mn225   2.173       .  S
N208        C215   1.343       .  A
N209        N210   1.328       .  A
N209       Mn213   2.252       .  S
N210        C215   1.360       .  A
N211        N212   1.315   1_655  A
N211       Mn225   2.192       .  S
N212        C214   1.347       .  A
Mn213      Cl226   2.573       .  S
C214       C1741   1.488       .  S
C215       C1765   1.481       .  S
N216        N217   1.316       .  A
N216        N222   1.311       .  A
N216       Mn224   2.169       .  S
N217        C227   1.347       .  A
N218        N219   1.320   1_655  A
N218        N220   1.310       .  A
N218       Mn225   2.190       .  S
N219        C228   1.352       .  A
N220        N221   1.316   1_655  A
N220       Mn224   2.161       .  S
N221        C228   1.350       .  A
N222        N223   1.326       .  A
N222       Mn225   2.222       .  S
N223        C227   1.360       .  A
Mn224      Cl226   2.570       .  S
Mn225      Cl226   2.505       .  S
C227       C1729   1.480       .  S
C228       C1705   1.470       .  S
N229        N230   1.323       .  A
N229        N235   1.312       .  A
N229       Mn258   2.218       .  S
N230        C237   1.358       .  A
N231        N233   1.310       .  A
N231        N232   1.317       .  A
N231       Mn247   2.170   1_554  S
N232        C238   1.350       .  A
N233        N234   1.313       .  A
N233       Mn258   2.172   1_554  S
N234        C238   1.352       .  A
N235        N236   1.316       .  A
N235       Mn247   2.161       .  S
N236        C237   1.344       .  A
C237       C1633   1.464       .  S
C238       C1612   1.470       .  S
N239        N245   1.317       .  A
N239        N240   1.326       .  A
N239       Mn269   2.236   1_554  S
N240        C248   1.360       .  A
N241        N242   1.311       .  A
N241        N243   1.317       .  A
N241       Mn247   2.171       .  S
N242        C249   1.343       .  A
N243        N244   1.326       .  A
N243       Mn269   2.229       .  S
N244        C249   1.361       .  A
N245        N246   1.314       .  A
N245       Mn247   2.167   1_554  S
N246        C248   1.342       .  A
Mn247      Cl271   2.503       .  S
C248       C1657   1.476       .  S
C249       C1684   1.469       .  S
N250        N251   1.324       .  A
N250        N256   1.313       .  A
N250       Mn258   2.218   1_554  S
N251        C259   1.358       .  A
N252        N254   1.313       .  A
N252        N253   1.324       .  A
N252       Mn270   2.220       .  S
N253        C260   1.358       .  A
N254        N255   1.317       .  A
N254       Mn258   2.175       .  S
N255        C260   1.347       .  A
N256        N257   1.318       .  A
N256       Mn270   2.180   1_554  S
N257        C259   1.350       .  A
Mn258      Cl271   2.572       .  S
C259       C1624   1.494       .  S
C260       C1600   1.478       .  S
N261        N262   1.328       .  A
N261        N267   1.320       .  A
N261       Mn269   2.237       .  S
N262        C272   1.359       .  A
N263        N264   1.318       .  A
N263        N265   1.319       .  A
N263       Mn270   2.207   1_554  S
N264        C273   1.350       .  A
N265        N266   1.324       .  A
N265       Mn269   2.221   1_554  S
N266        C273   1.358       .  A
N267        N268   1.312       .  A
N267       Mn270   2.170       .  S
N268        C272   1.342       .  A
Mn269      Cl271   2.577       .  S
Mn270      Cl271   2.502       .  S
C272       C1645   1.481       .  S
C273       C1669   1.484       .  S
N274        N275   1.317       .  A
N274        N280   1.309       .  A
N274       Mn303   2.175       .  S
N275        C282   1.353       .  A
N276        N278   1.313       .  A
N276        N277   1.319   1_565  A
N276       Mn292   2.195       .  S
N277        C283   1.352       .  A
N278        N279   1.322   1_565  A
N278       Mn303   2.202       .  S
N279        C283   1.355       .  A
N280        N281   1.319       .  A
N280       Mn292   2.185       .  S
N281        C282   1.352       .  A
C282       C1537   1.485       .  S
C283       C1513   1.489       .  S
N284        N290   1.320       .  A
N284        N285   1.328   1_565  A
N284       Mn314   2.251       .  S
N285        C293   1.362       .  A
N286        N287   1.315       .  A
N286        N288   1.319       .  A
N286       Mn292   2.181       .  S
N287        C294   1.344       .  A
N288        N289   1.324       .  A
N288       Mn314   2.233       .  S
N289        C294   1.358       .  A
N290        N291   1.317   1_565  A
N290       Mn292   2.184       .  S
N291        C293   1.345       .  A
Mn292      Cl316   2.507       .  S
C293       C1549   1.492       .  S
C294       C1585   1.466       .  S
N295        N296   1.310   1_565  A
N295        N301   1.309       .  A
N295       Mn303   2.157       .  S
N296        C304   1.348       .  A
N297        N299   1.313       .  A
N297        N298   1.321       .  A
N297       Mn315   2.190       .  S
N298        C305   1.350       .  A
N299        N300   1.318       .  A
N299       Mn303   2.194       .  S
N300        C305   1.353       .  A
N301        N302   1.318   1_565  A
N301       Mn315   2.169       .  S
N302        C304   1.351       .  A
Mn303      Cl316   2.571       .  S
C304       C1525   1.464       .  S
C305       C1501   1.469       .  S
N306        N307   1.328       .  A
N306        N312   1.318       .  A
N306       Mn314   2.240       .  S
N307        C317   1.361       .  A
N308        N309   1.316   1_565  A
N308        N310   1.321       .  A
N308       Mn315   2.193       .  S
N309        C318   1.345       .  A
N310        N311   1.328   1_565  A
N310       Mn314   2.245       .  S
N311        C318   1.360       .  A
N312        N313   1.310       .  A
N312       Mn315   2.161       .  S
N313        C317   1.340       .  A
Mn314      Cl316   2.574       .  S
Mn315      Cl316   2.507       .  S
C317       C1561   1.473       .  S
C318       C1573   1.477       .  S
C319        C320   1.389       .  D
C319       C1489   1.518       .  S
C319       C2401   1.523       .  S
C320       C1588   1.516       .  S
C320       C2260   1.526       .  S
C321        C322   1.383       .  D
C321       C1648   1.500       .  S
C321       C2332   1.498       .  S
C322       C1480   1.528       .  S
C322       C1576   1.512       .  S
C323        C324   1.386       .  D
C323       C1441   1.516       .  S
C323       C1564   1.503       .  S
C324       C1453   1.522       .  S
C324       C1465   1.519       .  S
N325        N326   1.328       .  A
N325        N331   1.318       .  A
N325       Mn354   2.240       .  S
N326        C333   1.362       .  A
N327        N329   1.319       .  A
N327        N328   1.313       .  A
N327       Mn343   2.161   1_554  S
N328        C334   1.339       .  A
N329        N330   1.330       .  A
N329       Mn354   2.259   1_554  S
N330        C334   1.364       .  A
N331        N332   1.314       .  A
N331       Mn343   2.185       .  S
N332        C333   1.346       .  A
C333       C1492   1.489       .  S
C334       C1429   1.476       .  S
N335        N341   1.312       .  A
N335        N336   1.324       .  A
N335       Mn365   2.207   1_554  S
N336        C344   1.357       .  A
N337        N338   1.321       .  A
N337        N339   1.309       .  A
N337       Mn343   2.175       .  S
N338        C345   1.353       .  A
N339        N340   1.309       .  A
N339       Mn365   2.155       .  S
N340        C345   1.345       .  A
N341        N342   1.318       .  A
N341       Mn343   2.190   1_554  S
N342        C344   1.352       .  A
Mn343      Cl367   2.502       .  S
C344       C1381   1.493       .  S
C345       C1393   1.466       .  S
N346        N347   1.328       .  A
N346        N352   1.320       .  A
N346       Mn354   2.246   1_554  S
N347        C355   1.361       .  A
N348        N350   1.317       .  A
N348        N349   1.312       .  A
N348       Mn366   2.166       .  S
N349        C356   1.343       .  A
N350        N351   1.328       .  A
N350       Mn354   2.247       .  S
N351        C356   1.363       .  A
N352        N353   1.314       .  A
N352       Mn366   2.182   1_554  S
N353        C355   1.342       .  A
Mn354      Cl367   2.587       .  S
C355       C1417   1.476       .  S
C356       C1468   1.492       .  S
N357        N358   1.323       .  A
N357        N363   1.312       .  A
N357       Mn365   2.208       .  S
N358        C368   1.357       .  A
N359        N360   1.322       .  A
N359        N361   1.310       .  A
N359       Mn366   2.185   1_554  S
N360        C369   1.353       .  A
N361        N362   1.311       .  A
N361       Mn365   2.160   1_554  S
N362        C369   1.348       .  A
N363        N364   1.321       .  A
N363       Mn366   2.204       .  S
N364        C368   1.354       .  A
Mn365      Cl367   2.562       .  S
Mn366      Cl367   2.500       .  S
C368       C1405   1.497       .  S
C369       C1372   1.466       .  S
C370        C371   1.395       .  D
C370       C1360   1.508       .  S
C370       C2704   1.539       .  S
C371       C1432   1.517       .  S
C371       C2389   1.523       .  S
C372        C373   1.400       .  D
C372       C1552   1.518       .  S
C372       C2248   1.511       .  S
C373       C1681   1.507       .  S
C373       C2833   1.551       .  S
C374        C375   1.390       .  D
C374       C1345   1.506       .  S
C374       C2140   1.534       .  S
C375       C1333   1.517       .  S
C375       C1420   1.514       .  S
N376        N377   1.329       .  A
N376        N382   1.320       .  A
N376       Mn405   2.238       .  S
N377        C384   1.360       .  A
N378        N380   1.321       .  A
N378        N379   1.313   1_565  A
N378       Mn394   2.185       .  S
N379        C385   1.344       .  A
N380        N381   1.328   1_565  A
N380       Mn405   2.240       .  S
N381        C385   1.360       .  A
N382        N383   1.315       .  A
N382       Mn394   2.193       .  S
N383        C384   1.347       .  A
C384       C1357   1.491       .  S
C385       C1324   1.479       .  S
N386        N392   1.312   1_545  A
N386        N387   1.316       .  A
N386       Mn416   2.180   1_545  S
N387        C395   1.351       .  A
N388        N389   1.322       .  A
N388        N390   1.313       .  A
N388       Mn394   2.212       .  S
N389        C396   1.356       .  A
N390        N391   1.321       .  A
N390       Mn416   2.197       .  S
N391        C396   1.355       .  A
N392        N393   1.323   1_565  A
N392       Mn394   2.204       .  S
N393        C395   1.356       .  A
Mn394      Cl418   2.505       .  S
C395       C1285   1.483       .  S
C396       C1261   1.496       .  S
N397        N398   1.329   1_565  A
N397        N403   1.320       .  A
N397       Mn405   2.249       .  S
N398        C406   1.361       .  A
N399        N401   1.319       .  A
N399        N400   1.311       .  A
N399       Mn417   2.176       .  S
N400        C407   1.343       .  A
N401        N402   1.327       .  A
N401       Mn405   2.230       .  S
N402        C407   1.360       .  A
N403        N404   1.314   1_565  A
N403       Mn417   2.172       .  S
N404        C406   1.341       .  A
Mn405      Cl418   2.583       .  S
C406       C1309   1.475       .  S
C407       C1348   1.476       .  S
N408        N409   1.320       .  A
N408        N414   1.310       .  A
N408       Mn416   2.196       .  S
N409        C419   1.355       .  A
N410        N411   1.322   1_565  A
N410        N412   1.313   1_565  A
N410       Mn417   2.189       .  S
N411        C420   1.351       .  A
N412        N413   1.323       .  A
N412       Mn416   2.214   1_545  S
N413        C420   1.356       .  A
N414        N415   1.321       .  A
N414       Mn417   2.187       .  S
N415        C419   1.353       .  A
Mn416      Cl418   2.575       .  S
Mn417      Cl418   2.509       .  S
C419       C1297   1.491       .  S
C420       C1273   1.482       .  S
N421        N422   1.311       .  A
N421        N427   1.311       .  A
N421       Mn450   2.158       .  S
N422        C429   1.348       .  A
N423        N425   1.311       .  A
N423        N424   1.321   1_565  A
N423       Mn439   2.205       .  S
N424        C430   1.355       .  A
N425        N426   1.319   1_565  A
N425       Mn450   2.186       .  S
N426        C430   1.353       .  A
N427        N428   1.322       .  A
N427       Mn439   2.200       .  S
N428        C429   1.356       .  A
C429       C1201   1.480       .  S
C430       C1180   1.490       .  S
N431        N437   1.321       .  A
N431        N432   1.327   1_565  A
N431       Mn461   2.237       .  S
N432        C440   1.358       .  A
N433        N434   1.315       .  A
N433        N435   1.320       .  A
N433       Mn439   2.175       .  S
N434        C441   1.341       .  A
N435        N436   1.331       .  A
N435       Mn461   2.264       .  S
N436        C441   1.365       .  A
N437        N438   1.316   1_565  A
N437       Mn439   2.201       .  S
N438        C440   1.347       .  A
Mn439      Cl463   2.502       .  S
C440       C1216   1.479       .  S
C441       C1249   1.481       .  S
N442        N443   1.311   1_565  A
N442        N448   1.311       .  A
N442       Mn450   2.156       .  S
N443        C451   1.346       .  A
N444        N446   1.310       .  A
N444        N445   1.317       .  A
N444       Mn462   2.176       .  S
N445        C452   1.350       .  A
N446        N447   1.317       .  A
N446       Mn450   2.182       .  S
N447        C452   1.354       .  A
N448        N449   1.322   1_565  A
N448       Mn462   2.199       .  S
N449        C451   1.356       .  A
Mn450      Cl463   2.576       .  S
C451       C1192   1.472       .  S
C452       C1165   1.477       .  S
N453        N454   1.332       .  A
N453        N459   1.320       .  A
N453       Mn461   2.250       .  S
N454        C464   1.363       .  A
N455        N456   1.311   1_565  A
N455        N457   1.319       .  A
N455       Mn462   2.161       .  S
N456        C465   1.340       .  A
N457        N458   1.330   1_565  A
N457       Mn461   2.254       .  S
N458        C465   1.363       .  A
N459        N460   1.313       .  A
N459       Mn462   2.187       .  S
N460        C464   1.344       .  A
Mn461      Cl463   2.602       .  S
Mn462      Cl463   2.495       .  S
C464       C1225   1.487       .  S
C465       C1240   1.476       .  S
N466        N467   1.312   1_655  A
N466        N472   1.309       .  A
N466       Mn495   2.165       .  S
N467        C474   1.349       .  A
N468        N470   1.312       .  A
N468        N469   1.320       .  A
N468       Mn484   2.181       .  S
N469        C475   1.348       .  A
N470        N471   1.320       .  A
N470       Mn495   2.200       .  S
N471        C475   1.355       .  A
N472        N473   1.322   1_655  A
N472       Mn484   2.183       .  S
N473        C474   1.354       .  A
C474       C1105   1.471       .  S
C475       C1069   1.472       .  S
N476        N482   1.318       .  A
N476        N477   1.328       .  A
N476       Mn506   2.236       .  S
N477        C485   1.362       .  A
N478        N479   1.312   1_655  A
N478        N480   1.321       .  A
N478       Mn484   2.170       .  S
N479        C486   1.340       .  A
N480        N481   1.329   1_655  A
N480       Mn506   2.254       .  S
N481        C486   1.362       .  A
N482        N483   1.310       .  A
N482       Mn484   2.167       .  S
N483        C485   1.341       .  A
Mn484      Cl508   2.496       .  S
C485       C1117   1.476       .  S
C486       C1156   1.477       .  S
N487        N488   1.313       .  A
N487        N493   1.309       .  A
N487       Mn495   2.162       .  S
N488        C496   1.349       .  A
N489        N491   1.312       .  A
N489        N490   1.317       .  A
N489       Mn507   2.175   1_455  S
N490        C497   1.350       .  A
N491        N492   1.319       .  A
N491       Mn495   2.195   1_455  S
N492        C497   1.354       .  A
N493        N494   1.319       .  A
N493       Mn507   2.185       .  S
N494        C496   1.355       .  A
Mn495      Cl508   2.577       .  S
C496       C1093   1.475       .  S
C497       C1081   1.478       .  S
N498        N499   1.329   1_655  A
N498        N504   1.320   1_655  A
N498       Mn506   2.244       .  S
N499        C509   1.362       .  A
N500        N501   1.311       .  A
N500        N502   1.319       .  A
N500       Mn507   2.175       .  S
N501        C510   1.345       .  A
N502        N503   1.330       .  A
N502       Mn506   2.250       .  S
N503        C510   1.364       .  A
N504        N505   1.314       .  A
N504       Mn507   2.177   1_455  S
N505        C509   1.341       .  A
Mn506      Cl508   2.588       .  S
Mn507      Cl508   2.493       .  S
C509       C1132   1.480       .  S
C510       C1144   1.496       .  S
C511        C512   1.392       .  D
C511       C1120   1.510       .  S
C511       C2764   1.523       .  S
C512       C1057   1.510       .  S
C512       C2161   1.521       .  S
N513        N514   1.317   1_565  A
N513        N519   1.311       .  A
N513       Mn542   2.180       .  S
N514        C521   1.352       .  A
N515        N517   1.310       .  A
N515        N516   1.318       .  A
N515       Mn531   2.173       .  S
N516        C522   1.351       .  A
N517        N518   1.310       .  A
N517       Mn542   2.160       .  S
N518        C522   1.350       .  A
N519        N520   1.315   1_565  A
N519       Mn531   2.163       .  S
N520        C521   1.346       .  A
C521       C1000   1.456       .  S
C522        C973   1.469       .  S
N523        N529   1.320       .  A
N523        N524   1.335       .  A
N523       Mn553   2.282       .  S
N524        C532   1.369       .  A
N525        N526   1.311       .  A
N525        N527   1.318   1_545  A
N525       Mn531   2.164   1_545  S
N526        C533   1.339       .  A
N527        N528   1.327   1_565  A
N527       Mn553   2.229       .  S
N528        C533   1.359       .  A
N529        N530   1.314       .  A
N529       Mn531   2.175       .  S
N530        C532   1.341       .  A
Mn531      Cl555   2.488       .  S
C532       C1021   1.499       .  S
C533       C1060   1.465       .  S
N534        N535   1.321       .  A
N534        N540   1.313       .  A
N534       Mn542   2.192       .  S
N535        C543   1.352       .  A
N536        N538   1.310       .  A
N536        N537   1.326   1_565  A
N536       Mn554   2.215       .  S
N537        C544   1.359       .  A
N538        N539   1.316   1_565  A
N538       Mn542   2.174       .  S
N539        C544   1.350       .  A
N540        N541   1.320       .  A
N540       Mn554   2.202       .  S
N541        C543   1.354       .  A
Mn542      Cl555   2.574       .  S
C543       C1009   1.480       .  S
C544        C985   1.497       .  S
N545        N546   1.331   1_565  A
N545        N551   1.319       .  A
N545       Mn553   2.273       .  S
N546        C556   1.367       .  A
N547        N548   1.320       .  A
N547        N549   1.322       .  A
N547       Mn554   2.218       .  S
N548        C557   1.349       .  A
N549        N550   1.327       .  A
N549       Mn553   2.237       .  S
N550        C557   1.358       .  A
N551        N552   1.311   1_565  A
N551       Mn554   2.157       .  S
N552        C556   1.339       .  A
Mn553      Cl555   2.599       .  S
Mn554      Cl555   2.497       .  S
C556       C1033   1.476       .  S
C557       C1048   1.485       .  S
C558        C559   1.393       .  D
C558        C949   1.531       .  S
C558       C1045   1.522       .  S
C559        C937   1.520       .  S
C559        C961   1.505       .  S
N560        N561   1.329       .  A
N560        N566   1.318       .  A
N560       Mn589   2.257       .  S
N561        C568   1.364       .  A
N562        N564   1.322       .  A
N562        N563   1.314       .  A
N562       Mn578   2.177       .  S
N563        C569   1.340       .  A
N564        N565   1.330       .  A
N564       Mn589   2.263       .  S
N565        C569   1.364       .  A
N566        N567   1.313       .  A
N566       Mn578   2.167       .  S
N567        C568   1.344       .  A
C568        C865   1.492       .  S
C569        C889   1.480       .  S
N570        N576   1.311       .  A
N570        N571   1.318       .  A
N570       Mn600   2.189       .  S
N571        C579   1.355       .  A
N572        N573   1.322       .  A
N572        N574   1.309       .  A
N572       Mn578   2.187       .  S
N573        C580   1.354       .  A
N574        N575   1.310       .  A
N574       Mn600   2.156       .  S
N575        C580   1.348       .  A
N576        N577   1.318       .  A
N576       Mn578   2.183       .  S
N577        C579   1.351       .  A
Mn578      Cl602   2.500       .  S
C579        C925   1.483       .  S
C580        C964   1.470       .  S
N581        N582   1.335       .  A
N581        N587   1.322       .  A
N581       Mn589   2.285   1_455  S
N582        C590   1.368       .  A
N583        N585   1.318       .  A
N583        N584   1.313       .  A
N583       Mn601   2.186       .  S
N584        C591   1.347       .  A
N585        N586   1.325       .  A
N585       Mn589   2.227   1_455  S
N586        C591   1.359       .  A
N587        N588   1.313       .  A
N587       Mn601   2.170       .  S
N588        C590   1.340       .  A
Mn589      Cl602   2.585       .  S
C590        C853   1.503       .  S
C591        C877   1.484       .  S
N592        N593   1.320       .  A
N592        N598   1.310       .  A
N592       Mn600   2.196   1_455  S
N593        C603   1.354       .  A
N594        N595   1.324       .  A
N594        N596   1.311   1_455  A
N594       Mn601   2.206       .  S
N595        C604   1.357       .  A
N596        N597   1.314       .  A
N596       Mn600   2.167       .  S
N597        C604   1.347   1_655  A
N598        N599   1.322       .  A
N598       Mn601   2.191       .  S
N599        C603   1.353       .  A
Mn600      Cl602   2.579       .  S
Mn601      Cl602   2.499   1_455  S
C603        C913   1.492       .  S
C604        C901   1.478       .  S
C605        C606   1.404       .  D
C605       C1024   1.528       .  S
C605       C2152   1.509       .  S
C606        C928   1.506       .  S
C606       C2212   1.569       .  S
C607        C608   1.397       .  D
C607       C1228   1.520       .  S
C607       C2221   1.546       .  S
C608        C844   1.520       .  S
C608        C916   1.512       .  S
C609        C610   1.382       .  D
C609       C1141   1.513       .  S
C609       C2284   1.521       .  S
C610        C832   1.511       .  S
C610       C1036   1.516       .  S
C611        C612   1.375       .  D
C611       C1252   1.514       .  S
C611       C2740   1.502       .  S
C612        C904   1.494       .  S
C612       C2200   1.502       .  S
C613        C614   1.392       .  D
C613       C1153   1.508       .  S
C613       C2773   1.509       .  S
C614       C1213   1.516       .  S
C614       C2716   1.546       .  S
C615        C616   1.398       .  D
C615       C1129   1.514       .  S
C615       C2272   1.551       .  S
C616       C1237   1.515       .  S
C616       C2236   1.506       .  S
C617        C618   1.398       .  D
C617       C1168   1.498       .  S
C617       C2632   1.537       .  S
C618        C817   1.505       .  S
C618       C1540   1.510       .  S
C619        C620   1.367       .  D
C619       C1084   1.494       .  S
C619       C2941   1.480       .  S
C620       C1840   1.496       .  S
C620       C2428   1.517       .  S
C621        C622   1.379       .  D
C621       C1072   1.496       .  S
C621       C2680   1.506       .  S
C622       C1732   1.526       .  S
C622       C2548   1.504       .  S
C623        C624   1.384       .  D
C623       C1177   1.503       .  S
C623       C2956   1.487       .  S
C624       C1288   1.506       .  S
C624       C2872   1.532       .  S
C625        C626   1.387       .  D
C625       C1204   1.497       .  S
C625       C2644   1.500       .  S
C626       C1264   1.515       .  S
C626       C2584   1.517       .  S
C627        C628   1.382       .  D
C627       C1108   1.502       .  S
C627       C2977   1.518       .  S
C628       C1708   1.513       .  S
C628       C2896   1.500       .  S
C629        C630   1.384       .  D
C629       C1189   1.487       .  S
C629       C2968   1.536       .  S
C630       C1516   1.514       .  S
C630       C2461   1.492       .  S
C631        C632   1.392       .  D
C631        C805   1.508       .  S
C631       C1816   1.513       .  S
C632       C1096   1.486       .  S
C632       C2692   1.528       .  S
C633        C634   1.383       .  D
C633       C1660   1.510       .  S
C633       C2812   1.505       .  S
C634       C1321   1.516       .  S
C634       C2728   1.532       .  S
C635        C636   1.395       .  D
C635       C1672   1.508       .  S
C635       C2317   1.540       .  S
C636       C1312   1.515       .  S
C636       C2128   1.515       .  S
C637        C638   1.384       .  D
C637       C2029   1.506       .  S
C637       C2440   1.496       .  S
C638       C1636   1.535       .  S
C638       C2500   1.512       .  S
C639        C640   1.373       .  D
C639       C1597   1.508       .  S
C639       C2488   1.492       .  S
C640        C793   1.506       .  S
C640       C1972   1.500       .  S
C641        C642   1.388       .  D
C641       C1300   1.509       .  S
C641       C2596   1.489       .  S
C642        C781   1.539       .  S
C642        C976   1.489       .  S
C643        C644   1.380       .  D
C643        C997   1.489       .  S
C643       C2665   1.523       .  S
C644       C1276   1.531       .  S
C644       C2848   1.488       .  S
C645        C646   1.384       .  D
C645        C757   1.539       .  S
C645       C1960   1.498       .  S
C646        C769   1.493       .  S
C646       C1408   1.524       .  S
C647        C648   1.393       .  D
C647       C2092   1.515       .  S
C647       C2368   1.538       .  S
C648       C1756   1.522       .  S
C648       C2188   1.516       .  S
C649        C650   1.392       .  D
C649       C2104   1.521       .  S
C649       C2821   1.512       .  S
C650       C1744   1.513       .  S
C650       C2749   1.538       .  S
C651        C652   1.396       .  D
C651       C2068   1.502       .  S
C651       C2452   1.521       .  S
C652        C745   1.516       .  S
C652       C1396   1.506       .  S
C653        C654   1.376       .  D
C653        C856   1.520       .  S
C653       C2605   1.496       .  S
C654       C1720   1.478       .  S
C654       C2920   1.505       .  S
C655        C656   1.382       .  D
C655       C1696   1.474       .  S
C655       C2536   1.532       .  S
C656        C733   1.489       .  S
C656        C892   1.518       .  S
C657        C658   1.381       .  D
C657        C721   1.494       .  S
C657       C1852   1.484       .  S
C658        C709   1.526       .  S
C658        C868   1.519       .  S
C659        C660   1.385       .  D
C659        C988   1.517       .  S
C659       C2656   1.488       .  S
C660       C1528   1.474       .  S
C660       C2476   1.535       .  S
C661        C662   1.382       .  D
C661        C685   1.531       .  S
C661       C1504   1.506       .  S
C662        C700   1.484       .  S
C662       C1012   1.503       .  S
C663        C664   1.386       .  D
C663        C880   1.501       .  S
C663       C2620   1.528       .  S
C664       C1828   1.501       .  S
C664       C2416   1.494       .  S
C665        C666   1.387       .  D
C665       C1780   1.517       .  S
C665       C1804   1.512       .  S
C666        C841   1.532       .  S
C666        C940   1.532       .  S
C667        C668   1.393       .  D
C667       C1444   1.530       .  S
C667       C1477   1.486       .  S
C668        C829   1.538       .  S
C668        C952   1.497       .  S
C669        C670   1.393       .  D
C669       C1792   1.533       .  S
C669       C1900   1.523   1_556  S
C670       C1336   1.529   1_556  S
C670       C1456   1.519       .  S
C671        C672   1.377       .  D
C671        C688   1.491       .  S
C671        C820   1.495       .  S
C672        C748   1.512       .  S
C672        C772   1.522       .  S
C673        C674   1.384       .  D
C673        C760   1.511       .  S
C673        C796   1.512       .  S
C674        C724   1.523       .  S
C674        C808   1.500       .  S
C675        C676   1.379       .  D
C675        C697   1.513       .  S
C675        C784   1.505       .  S
C676        C712   1.518       .  S
C676        C736   1.506       .  S
C677        C678   1.383       .  D
C677       C1621   1.509       .  S
C677       C2884   1.491       .  S
C678       C1936   1.501       .  S
C678       C2512   1.527       .  S
C679        C680   1.381       .  D
C679       C1948   1.504       .  S
C679       C2521   1.489       .  S
C680       C1369   1.500       .  S
C680       C2560   1.516       .  S
C681        C682   1.382       .  D
C681       C2044   1.499       .  S
C681       C2908   1.549       .  S
C682       C1384   1.518       .  S
C682       C2572   1.473       .  S
C683        C684   1.380       .  D
C683       C1609   1.479       .  S
C683       C2860   1.522       .  S
C684       C2056   1.499       .  S
C684       C2929   1.486       .  S
C685        C686   1.416       .  A
C685        C690   1.421       .  A
C686        C687   1.405       .  A
C686        H695   1.062       .  S
C687        C688   1.410       .  A
C687        S691   1.805       .  S
C688        C689   1.399       .  A
C689        C690   1.392       .  A
C689        H696   1.084       .  S
C690        S692   1.804       .  S
S691        H694   1.399       .  S
S692        H693   1.406       .  S
C697        C698   1.414       .  A
C697        C702   1.419       .  A
C698        C699   1.400       .  A
C698        H707   1.079       .  S
C699        C700   1.410       .  A
C699        S703   1.802       .  S
C700        C701   1.401       .  A
C701        C702   1.394       .  A
C701        H708   1.084       .  S
C702        S704   1.804       .  S
S703        H706   1.405       .  S
S704        H705   1.407       .  S
C709        C710   1.409       .  A
C709        C714   1.427       .  A
C710        C711   1.383       .  A
C710        H719   1.080       .  S
C711        C712   1.411       .  A
C711        S715   1.796       .  S
C712        C713   1.412       .  A
C713        C714   1.421       .  A
C713        H720   1.081       .  S
C714        S716   1.804       .  S
S715        H718   1.404       .  S
S716        H717   1.407       .  S
C721        C722   1.394       .  A
C721        C726   1.414       .  A
C722        C723   1.404       .  A
C722        H731   1.083       .  S
C723        C724   1.430       .  A
C723        S727   1.791       .  S
C724        C725   1.408       .  A
C725        C726   1.396       .  A
C725        H732   1.080       .  S
C726        S728   1.802       .  S
S727        H730   1.410       .  S
S728        H729   1.406       .  S
C733        C734   1.402       .  A
C733        C738   1.411       .  A
C734        C735   1.396       .  A
C734        H743   1.082       .  S
C735        C736   1.424       .  A
C735        S739   1.809       .  S
C736        C737   1.408       .  A
C737        C738   1.401       .  A
C737        H744   1.083       .  S
C738        S740   1.805       .  S
S739        H742   1.407       .  S
S740        H741   1.406       .  S
C745        C746   1.406       .  A
C745        C750   1.427       .  A
C746        C747   1.372       .  A
C746        H755   1.071       .  S
C747        C748   1.404       .  A
C747        S751   1.806       .  S
C748        C749   1.418       .  A
C749        C750   1.420       .  A
C749        H756   1.080       .  S
C750        S752   1.805       .  S
S751        H754   1.403       .  S
S752        H753   1.399       .  S
C757        C758   1.415       .  A
C757        C762   1.432       .  A
C758        C759   1.382       .  A
C758        H767   1.078       .  S
C759        C760   1.408       .  A
C759        S763   1.798       .  S
C760        C761   1.407       .  A
C761        C762   1.415       .  A
C761        H768   1.083       .  S
C762        S764   1.791       .  S
S763        H766   1.399       .  S
S764        H765   1.405       .  S
C769        C770   1.406       .  A
C769        C774   1.410       .  A
C770        C771   1.410       .  A
C770        H779   1.082       .  S
C771        C772   1.422       .  A
C771        S775   1.804       .  S
C772        C773   1.406       .  A
C773        C774   1.389       .  A
C773        H780   1.064       .  S
C774        S776   1.804       .  S
S775        H778   1.403       .  S
S776        H777   1.402       .  S
C781        C782   1.419       .  A
C781        C786   1.426       .  A
C782        C783   1.376       .  A
C782        H791   1.076       .  S
C783        C784   1.406       .  A
C783        S787   1.810       .  S
C784        C785   1.414       .  A
C785        C786   1.423       .  A
C785        H792   1.081       .  S
C786        S788   1.803       .  S
S787        H790   1.403       .  S
S788        H789   1.407       .  S
C793        C794   1.403       .  A
C793        C798   1.409       .  A
C794        C795   1.396       .  A
C794        H803   1.067       .  S
C795        C796   1.411       .  A
C795        S799   1.804       .  S
C796        C797   1.410       .  A
C797        C798   1.399       .  A
C797        H804   1.067       .  S
C798        S800   1.797       .  S
S799        H802   1.407       .  S
S800        H801   1.405       .  S
C805        C806   1.410       .  A
C805        C810   1.427       .  A
C806        C807   1.386       .  A
C806        H815   1.078       .  S
C807        C808   1.405       .  A
C807        S811   1.800       .  S
C808        C809   1.407       .  A
C809        C810   1.412       .  A
C809        H816   1.080       .  S
C810        S812   1.805       .  S
S811        H814   1.404       .  S
S812        H813   1.401       .  S
C817        C818   1.413       .  A
C817        C822   1.423       .  A
C818        C819   1.401       .  A
C818        H827   1.081       .  S
C819        C820   1.409       .  A
C819        S823   1.806       .  S
C820        C821   1.402       .  A
C821        C822   1.400       .  A
C821        H828   1.079       .  S
C822        S824   1.800       .  S
S823        H826   1.406       .  S
S824        H825   1.386       .  S
C829        C830   1.410   1_565  A
C829        C834   1.427   1_565  A
C830        C831   1.398       .  A
C830        H839   1.066       .  S
C831        C832   1.411       .  A
C831        S835   1.797       .  S
C832        C833   1.404       .  A
C833        C834   1.408       .  A
C833        H840   1.082       .  S
C834        S836   1.795   1_545  S
S835        H838   1.406       .  S
S836        H837   1.402       .  S
C841        C842   1.404   1_655  A
C841        C846   1.427   1_655  A
C842        C843   1.398       .  A
C842        H851   1.080       .  S
C843        C844   1.421       .  A
C843        S847   1.793       .  S
C844        C845   1.409       .  A
C845        C846   1.416       .  A
C845        H852   1.083       .  S
C846        S848   1.802   1_455  S
S847        H850   1.405       .  S
S848        H849   1.404       .  S
C853        C854   1.414       .  A
C853        C858   1.415       .  A
C854        C855   1.408       .  A
C854        H863   1.083       .  S
C855        C856   1.407       .  A
C855        S859   1.805       .  S
C856        C857   1.413       .  A
C857        C858   1.409       .  A
C857        H864   1.082       .  S
C858        S860   1.797       .  S
S859        H862   1.406       .  S
S860        H861   1.407       .  S
C865        C866   1.412       .  A
C865        C870   1.411       .  A
C866        C867   1.403       .  A
C866        H875   1.084       .  S
C867        C868   1.409       .  A
C867        S871   1.804       .  S
C868        C869   1.411       .  A
C869        C870   1.400       .  A
C869        H876   1.078       .  S
C870        S872   1.799       .  S
S871        H874   1.404       .  S
S872        H873   1.407       .  S
C877        C878   1.408       .  A
C877        C882   1.414       .  A
C878        C879   1.398       .  A
C878        H887   1.084       .  S
C879        C880   1.411       .  A
C879        S883   1.805       .  S
C880        C881   1.409       .  A
C881        C882   1.399       .  A
C881        H888   1.083       .  S
C882        S884   1.799       .  S
S883        H886   1.405       .  S
S884        H885   1.407       .  S
C889        C890   1.404       .  A
C889        C894   1.414       .  A
C890        C891   1.407       .  A
C890        H899   1.084       .  S
C891        C892   1.421       .  A
C891        S895   1.807       .  S
C892        C893   1.402       .  A
C893        C894   1.400       .  A
C893        H900   1.084       .  S
C894        S896   1.800       .  S
S895        H898   1.402       .  S
S896        H897   1.404       .  S
C901        C902   1.406       .  A
C901        C906   1.412       .  A
C902        C903   1.403       .  A
C902        H911   1.084       .  S
C903        C904   1.414       .  A
C903        S907   1.802       .  S
C904        C905   1.402       .  A
C905        C906   1.389       .  A
C905        H912   1.079       .  S
C906        S908   1.800       .  S
S907        H910   1.403       .  S
S908        H909   1.407   1_455  S
C913        C914   1.407       .  A
C913        C918   1.414       .  A
C914        C915   1.405       .  A
C914        H923   1.083       .  S
C915        C916   1.423       .  A
C915        S919   1.806       .  S
C916        C917   1.397       .  A
C917        C918   1.396       .  A
C917        H924   1.077       .  S
C918        S920   1.793   1_455  S
S919        H922   1.400       .  S
S920        H921   1.408       .  S
C925        C926   1.403       .  A
C925        C930   1.419       .  A
C926        C927   1.394       .  A
C926        H935   1.081       .  S
C927        C928   1.411       .  A
C927        S931   1.800       .  S
C928        C929   1.400       .  A
C929        C930   1.399       .  A
C929        H936   1.081       .  S
C930        S932   1.800       .  S
S931        H934   1.407       .  S
S932        H933   1.408       .  S
C937        C938   1.416       .  A
C937        C942   1.407       .  A
C938        C939   1.430       .  A
C938        H947   1.082       .  S
C939        C940   1.435       .  A
C939        S943   1.799       .  S
C940        C941   1.402       .  A
C941        C942   1.373       .  A
C941        H948   1.081       .  S
C942        S944   1.785       .  S
S943        H946   1.405       .  S
S944        H945   1.406       .  S
C949        C950   1.415       .  A
C949        C954   1.427       .  A
C950        C951   1.386       .  A
C950        H959   1.080       .  S
C951        C952   1.409       .  A
C951        S955   1.812       .  S
C952        C953   1.408       .  A
C953        C954   1.419       .  A
C953        H960   1.080       .  S
C954        S956   1.804       .  S
S955        H958   1.393       .  S
S956        H957   1.407       .  S
C961        C962   1.407       .  A
C961        C966   1.422       .  A
C962        C963   1.400       .  A
C962        H971   1.084       .  S
C963        C964   1.411       .  A
C963        S967   1.798       .  S
C964        C965   1.398       .  A
C965        C966   1.384       .  A
C965        H972   1.085       .  S
C966        S968   1.807       .  S
S967        H970   1.407       .  S
S968        H969   1.397       .  S
C973        C974   1.402       .  A
C973        C978   1.416       .  A
C974        C975   1.382       .  A
C974        H983   1.084       .  S
C975        C976   1.415       .  A
C975        S979   1.808       .  S
C976        C977   1.399       .  A
C977        C978   1.394       .  A
C977        H984   1.083       .  S
C978        S980   1.799       .  S
S979        H982   1.395       .  S
S980        H981   1.408       .  S
C985        C986   1.408       .  A
C985        C990   1.419       .  A
C986        C987   1.407       .  A
C986        H995   1.083       .  S
C987        C988   1.420       .  A
C987        S991   1.808       .  S
C988        C989   1.399       .  A
C989        C990   1.399       .  A
C989        H996   1.083       .  S
C990        S992   1.802       .  S
S991        H994   1.402       .  S
S992        H993   1.408       .  S
C997        C998   1.402       .  A
C997       C1002   1.420       .  A
C998        C999   1.392       .  A
C998       H1007   1.084       .  S
C999       C1000   1.410       .  A
C999       S1003   1.802       .  S
C1000      C1001   1.395       .  A
C1001      C1002   1.393       .  A
C1001      H1008   1.083       .  S
C1002      S1004   1.805       .  S
S1003      H1006   1.407       .  S
S1004      H1005   1.407       .  S
C1009      C1010   1.405       .  A
C1009      C1014   1.410       .  A
C1010      C1011   1.406       .  A
C1010      H1019   1.082       .  S
C1011      C1012   1.414       .  A
C1011      S1015   1.806       .  S
C1012      C1013   1.402       .  A
C1013      C1014   1.394       .  A
C1013      H1020   1.078       .  S
C1014      S1016   1.797       .  S
S1015      H1018   1.406       .  S
S1016      H1017   1.408       .  S
C1021      C1022   1.407       .  A
C1021      C1026   1.413       .  A
C1022      C1023   1.406       .  A
C1022      H1031   1.083       .  S
C1023      C1024   1.422       .  A
C1023      S1027   1.809       .  S
C1024      C1025   1.412       .  A
C1025      C1026   1.412       .  A
C1025      H1032   1.082       .  S
C1026      S1028   1.797       .  S
S1027      H1030   1.402       .  S
S1028      H1029   1.406       .  S
C1033      C1034   1.400       .  A
C1033      C1038   1.413       .  A
C1034      C1035   1.408       .  A
C1034      H1043   1.084       .  S
C1035      C1036   1.428       .  A
C1035      S1039   1.803       .  S
C1036      C1037   1.402       .  A
C1037      C1038   1.394       .  A
C1037      H1044   1.083       .  S
C1038      S1040   1.799   1_545  S
S1039      H1042   1.396       .  S
S1040      H1041   1.402       .  S
C1045      C1046   1.410       .  A
C1045      C1050   1.418       .  A
C1046      C1047   1.403       .  A
C1046      H1055   1.083       .  S
C1047      C1048   1.411       .  A
C1047      S1051   1.800       .  S
C1048      C1049   1.402       .  A
C1049      C1050   1.403       .  A
C1049      H1056   1.082       .  S
C1050      S1052   1.815       .  S
S1051      H1054   1.406       .  S
S1052      H1053   1.397       .  S
C1057      C1058   1.410       .  A
C1057      C1062   1.415       .  A
C1058      C1059   1.394       .  A
C1058      H1067   1.083       .  S
C1059      C1060   1.405       .  A
C1059      S1063   1.802       .  S
C1060      C1061   1.405       .  A
C1061      C1062   1.402       .  A
C1061      H1068   1.083   1_545  S
C1062      S1064   1.807   1_545  S
S1063      H1066   1.407       .  S
S1064      H1065   1.400       .  S
C1069      C1070   1.400       .  A
C1069      C1074   1.407       .  A
C1070      C1071   1.400       .  A
C1070      H1079   1.084       .  S
C1071      C1072   1.418       .  A
C1071      S1075   1.803       .  S
C1072      C1073   1.403       .  A
C1073      C1074   1.394       .  A
C1073      H1080   1.083       .  S
C1074      S1076   1.794       .  S
S1075      H1078   1.404       .  S
S1076      H1077   1.407       .  S
C1081      C1082   1.405       .  A
C1081      C1086   1.412       .  A
C1082      C1083   1.396       .  A
C1082      H1091   1.083       .  S
C1083      C1084   1.415       .  A
C1083      S1087   1.807       .  S
C1084      C1085   1.397       .  A
C1085      C1086   1.391       .  A
C1085      H1092   1.084       .  S
C1086      S1088   1.792       .  S
S1087      H1090   1.399       .  S
S1088      H1089   1.408       .  S
C1093      C1094   1.406       .  A
C1093      C1098   1.416       .  A
C1094      C1095   1.395       .  A
C1094      H1103   1.083       .  S
C1095      C1096   1.414       .  A
C1095      S1099   1.809       .  S
C1096      C1097   1.399       .  A
C1097      C1098   1.392       .  A
C1097      H1104   1.082       .  S
C1098      S1100   1.812       .  S
S1099      H1102   1.403       .  S
S1100      H1101   1.407       .  S
C1105      C1106   1.401       .  A
C1105      C1110   1.415       .  A
C1106      C1107   1.387       .  A
C1106      H1115   1.084       .  S
C1107      C1108   1.416       .  A
C1107      S1111   1.808       .  S
C1108      C1109   1.403       .  A
C1109      C1110   1.400       .  A
C1109      H1116   1.084       .  S
C1110      S1112   1.800       .  S
S1111      H1114   1.402       .  S
S1112      H1113   1.407       .  S
C1117      C1118   1.401       .  A
C1117      C1122   1.416       .  A
C1118      C1119   1.401       .  A
C1118      H1127   1.084       .  S
C1119      C1120   1.422       .  A
C1119      S1123   1.807       .  S
C1120      C1121   1.400       .  A
C1121      C1122   1.395       .  A
C1121      H1128   1.084       .  S
C1122      S1124   1.805       .  S
S1123      H1126   1.401       .  S
S1124      H1125   1.407       .  S
C1129      C1130   1.406       .  A
C1129      C1134   1.418       .  A
C1130      C1131   1.402       .  A
C1130      H1139   1.081       .  S
C1131      C1132   1.413       .  A
C1131      S1135   1.802   1_455  S
C1132      C1133   1.405       .  A
C1133      C1134   1.402       .  A
C1133      H1140   1.084       .  S
C1134      S1136   1.809       .  S
S1135      H1138   1.407       .  S
S1136      H1137   1.402       .  S
C1141      C1142   1.414       .  A
C1141      C1146   1.413       .  A
C1142      C1143   1.405       .  A
C1142      H1151   1.083       .  S
C1143      C1144   1.414       .  A
C1143      S1147   1.798       .  S
C1144      C1145   1.411       .  A
C1145      C1146   1.396       .  A
C1145      H1152   1.083       .  S
C1146      S1148   1.810       .  S
S1147      H1150   1.407       .  S
S1148      H1149   1.402       .  S
C1153      C1154   1.405       .  A
C1153      C1158   1.421       .  A
C1154      C1155   1.402       .  A
C1154      H1163   1.083       .  S
C1155      C1156   1.412       .  A
C1155      S1159   1.798   1_455  S
C1156      C1157   1.402       .  A
C1157      C1158   1.400       .  A
C1157      H1164   1.084       .  S
C1158      S1160   1.808       .  S
S1159      H1162   1.406       .  S
S1160      H1161   1.399       .  S
C1165      C1166   1.401       .  A
C1165      C1170   1.418       .  A
C1166      C1167   1.387       .  A
C1166      H1175   1.084       .  S
C1167      C1168   1.407       .  A
C1167      S1171   1.787       .  S
C1168      C1169   1.401       .  A
C1169      C1170   1.399       .  A
C1169      H1176   1.084       .  S
C1170      S1172   1.799       .  S
S1171      H1174   1.405       .  S
S1172      H1173   1.407       .  S
C1177      C1178   1.401       .  A
C1177      C1182   1.415       .  A
C1178      C1179   1.397       .  A
C1178      H1187   1.079       .  S
C1179      C1180   1.413       .  A
C1179      S1183   1.789       .  S
C1180      C1181   1.403       .  A
C1181      C1182   1.402       .  A
C1181      H1188   1.081       .  S
C1182      S1184   1.803       .  S
S1183      H1186   1.408       .  S
S1184      H1185   1.406       .  S
C1189      C1190   1.396       .  A
C1189      C1194   1.417       .  A
C1190      C1191   1.381       .  A
C1190      H1199   1.082       .  S
C1191      C1192   1.414       .  A
C1191      S1195   1.794       .  S
C1192      C1193   1.404       .  A
C1193      C1194   1.400       .  A
C1193      H1200   1.084       .  S
C1194      S1196   1.807       .  S
S1195      H1198   1.408       .  S
S1196      H1197   1.403       .  S
C1201      C1202   1.404       .  A
C1201      C1206   1.412       .  A
C1202      C1203   1.389       .  A
C1202      H1211   1.083       .  S
C1203      C1204   1.411       .  A
C1203      S1207   1.797       .  S
C1204      C1205   1.409       .  A
C1205      C1206   1.399       .  A
C1205      H1212   1.076       .  S
C1206      S1208   1.801       .  S
S1207      H1210   1.380       .  S
S1208      H1209   1.407       .  S
C1213      C1214   1.400       .  A
C1213      C1218   1.424       .  A
C1214      C1215   1.395       .  A
C1214      H1223   1.080       .  S
C1215      C1216   1.406       .  A
C1215      S1219   1.795       .  S
C1216      C1217   1.402       .  A
C1217      C1218   1.405       .  A
C1217      H1224   1.084       .  S
C1218      S1220   1.802       .  S
S1219      H1222   1.407       .  S
S1220      H1221   1.398       .  S
C1225      C1226   1.404       .  A
C1225      C1230   1.411       .  A
C1226      C1227   1.410       .  A
C1226      H1235   1.084       .  S
C1227      C1228   1.427       .  A
C1227      S1231   1.809       .  S
C1228      C1229   1.399       .  A
C1229      C1230   1.397       .  A
C1229      H1236   1.082       .  S
C1230      S1232   1.800       .  S
S1231      H1234   1.401       .  S
S1232      H1233   1.407       .  S
C1237      C1238   1.404       .  A
C1237      C1242   1.419       .  A
C1238      C1239   1.396       .  A
C1238      H1247   1.081       .  S
C1239      C1240   1.412       .  A
C1239      S1243   1.805       .  S
C1240      C1241   1.403       .  A
C1241      C1242   1.406       .  A
C1241      H1248   1.084   1_545  S
C1242      S1244   1.796   1_545  S
S1243      H1246   1.407       .  S
S1244      H1245   1.395   1_565  S
C1249      C1250   1.401       .  A
C1249      C1254   1.413       .  A
C1250      C1251   1.402       .  A
C1250      H1259   1.085       .  S
C1251      C1252   1.418       .  A
C1251      S1255   1.797       .  S
C1252      C1253   1.409       .  A
C1253      C1254   1.407       .  A
C1253      H1260   1.083       .  S
C1254      S1256   1.802       .  S
S1255      H1258   1.394       .  S
S1256      H1257   1.406       .  S
C1261      C1262   1.404       .  A
C1261      C1266   1.414       .  A
C1262      C1263   1.400       .  A
C1262      H1271   1.075       .  S
C1263      C1264   1.411       .  A
C1263      S1267   1.795       .  S
C1264      C1265   1.406       .  A
C1265      C1266   1.398       .  A
C1265      H1272   1.082       .  S
C1266      S1268   1.788       .  S
S1267      H1270   1.405       .  S
S1268      H1269   1.400       .  S
C1273      C1274   1.400       .  A
C1273      C1278   1.414       .  A
C1274      C1275   1.401       .  A
C1274      H1283   1.084       .  S
C1275      C1276   1.418       .  A
C1275      S1279   1.789       .  S
C1276      C1277   1.412       .  A
C1277      C1278   1.407       .  A
C1277      H1284   1.083       .  S
C1278      S1280   1.801       .  S
S1279      H1282   1.405       .  S
S1280      H1281   1.407       .  S
C1285      C1286   1.403       .  A
C1285      C1290   1.415       .  A
C1286      C1287   1.392       .  A
C1286      H1295   1.084       .  S
C1287      C1288   1.408       .  A
C1287      S1291   1.790       .  S
C1288      C1289   1.408       .  A
C1289      C1290   1.403       .  A
C1289      H1296   1.083       .  S
C1290      S1292   1.800       .  S
S1291      H1294   1.391       .  S
S1292      H1293   1.407       .  S
C1297      C1298   1.408       .  A
C1297      C1302   1.412       .  A
C1298      C1299   1.404       .  A
C1298      H1307   1.082       .  S
C1299      C1300   1.418       .  A
C1299      S1303   1.807       .  S
C1300      C1301   1.401       .  A
C1301      C1302   1.398       .  A
C1301      H1308   1.080       .  S
C1302      S1304   1.800       .  S
S1303      H1306   1.403       .  S
S1304      H1305   1.408       .  S
C1309      C1310   1.403       .  A
C1309      C1314   1.408       .  A
C1310      C1311   1.406       .  A
C1310      H1319   1.084   1_545  S
C1311      C1312   1.420       .  A
C1311      S1315   1.805   1_545  S
C1312      C1313   1.410       .  A
C1313      C1314   1.398       .  A
C1313      H1320   1.081       .  S
C1314      S1316   1.804       .  S
S1315      H1318   1.398   1_565  S
S1316      H1317   1.406       .  S
C1321      C1322   1.407       .  A
C1321      C1326   1.421       .  A
C1322      C1323   1.394       .  A
C1322      H1331   1.075       .  S
C1323      C1324   1.409       .  A
C1323      S1327   1.806       .  S
C1324      C1325   1.403       .  A
C1325      C1326   1.407       .  A
C1325      H1332   1.084   1_545  S
C1326      S1328   1.800   1_545  S
S1327      H1330   1.407       .  S
S1328      H1329   1.395       .  S
C1333      C1334   1.408       .  A
C1333      C1338   1.421       .  A
C1334      C1335   1.414       .  A
C1334      H1343   1.083       .  S
C1335      C1336   1.424       .  A
C1335      S1339   1.799       .  S
C1336      C1337   1.403       .  A
C1337      C1338   1.395       .  A
C1337      H1344   1.080       .  S
C1338      S1340   1.792       .  S
S1339      H1342   1.405       .  S
S1340      H1341   1.406       .  S
C1345      C1346   1.398       .  A
C1345      C1350   1.423       .  A
C1346      C1347   1.393       .  A
C1346      H1355   1.083       .  S
C1347      C1348   1.413       .  A
C1347      S1351   1.803       .  S
C1348      C1349   1.402       .  A
C1349      C1350   1.402       .  A
C1349      H1356   1.084       .  S
C1350      S1352   1.810       .  S
S1351      H1354   1.407       .  S
S1352      H1353   1.402       .  S
C1357      C1358   1.406       .  A
C1357      C1362   1.414       .  A
C1358      C1359   1.409       .  A
C1358      H1367   1.083       .  S
C1359      C1360   1.428       .  A
C1359      S1363   1.809       .  S
C1360      C1361   1.395       .  A
C1361      C1362   1.388       .  A
C1361      H1368   1.085       .  S
C1362      S1364   1.790       .  S
S1363      H1366   1.403       .  S
S1364      H1365   1.408       .  S
C1369      C1370   1.405       .  A
C1369      C1374   1.413       .  A
C1370      C1371   1.385       .  A
C1370      H1379   1.075       .  S
C1371      C1372   1.407       .  A
C1371      S1375   1.811       .  S
C1372      C1373   1.406       .  A
C1373      C1374   1.403       .  A
C1373      H1380   1.084       .  S
C1374      S1376   1.802       .  S
S1375      H1378   1.407       .  S
S1376      H1377   1.406       .  S
C1381      C1382   1.405       .  A
C1381      C1386   1.414       .  A
C1382      C1383   1.398       .  A
C1382      H1391   1.083       .  S
C1383      C1384   1.419       .  A
C1383      S1387   1.798       .  S
C1384      C1385   1.408       .  A
C1385      C1386   1.405       .  A
C1385      H1392   1.082       .  S
C1386      S1388   1.802       .  S
S1387      H1390   1.394       .  S
S1388      H1389   1.408       .  S
C1393      C1394   1.408       .  A
C1393      C1398   1.411       .  A
C1394      C1395   1.401       .  A
C1394      H1403   1.083       .  S
C1395      C1396   1.408       .  A
C1395      S1399   1.800       .  S
C1396      C1397   1.404       .  A
C1397      C1398   1.381       .  A
C1397      H1404   1.080       .  S
C1398      S1400   1.814       .  S
S1399      H1402   1.401       .  S
S1400      H1401   1.407       .  S
C1405      C1406   1.406       .  A
C1405      C1410   1.416       .  A
C1406      C1407   1.406       .  A
C1406      H1415   1.084       .  S
C1407      C1408   1.422       .  A
C1407      S1411   1.803       .  S
C1408      C1409   1.409       .  A
C1409      C1410   1.400       .  A
C1409      H1416   1.080       .  S
C1410      S1412   1.800       .  S
S1411      H1414   1.388       .  S
S1412      H1413   1.408       .  S
C1417      C1418   1.401       .  A
C1417      C1422   1.408       .  A
C1418      C1419   1.405       .  A
C1418      H1427   1.084       .  S
C1419      C1420   1.426       .  A
C1419      S1423   1.808       .  S
C1420      C1421   1.404       .  A
C1421      C1422   1.401       .  A
C1421      H1428   1.081       .  S
C1422      S1424   1.800       .  S
S1423      H1426   1.401       .  S
S1424      H1425   1.406       .  S
C1429      C1430   1.402       .  A
C1429      C1434   1.411       .  A
C1430      C1431   1.407       .  A
C1430      H1439   1.084       .  S
C1431      C1432   1.426       .  A
C1431      S1435   1.806       .  S
C1432      C1433   1.401       .  A
C1433      C1434   1.400       .  A
C1433      H1440   1.078       .  S
C1434      S1436   1.801       .  S
S1435      H1438   1.400       .  S
S1436      H1437   1.405       .  S
C1441      C1442   1.403       .  A
C1441      C1446   1.414       .  A
C1442      C1443   1.399       .  A
C1442      H1451   1.077       .  S
C1443      C1444   1.418       .  A
C1443      S1447   1.791       .  S
C1444      C1445   1.420       .  A
C1445      C1446   1.419       .  A
C1445      H1452   1.076       .  S
C1446      S1448   1.806       .  S
S1447      H1450   1.408       .  S
S1448      H1449   1.406       .  S
C1453      C1454   1.417       .  A
C1453      C1458   1.411       .  A
C1454      C1455   1.424       .  A
C1454      H1463   1.080       .  S
C1455      C1456   1.428       .  A
C1455      S1459   1.803       .  S
C1456      C1457   1.402       .  A
C1457      C1458   1.378       .  A
C1457      H1464   1.082       .  S
C1458      S1460   1.793       .  S
S1459      H1462   1.401       .  S
S1460      H1461   1.407       .  S
C1465      C1466   1.413       .  A
C1465      C1470   1.414       .  A
C1466      C1467   1.399       .  A
C1466      H1475   1.080       .  S
C1467      C1468   1.410       .  A
C1467      S1471   1.799       .  S
C1468      C1469   1.412       .  A
C1469      C1470   1.401       .  A
C1469      H1476   1.084       .  S
C1470      S1472   1.809       .  S
S1471      H1474   1.407       .  S
S1472      H1473   1.398       .  S
C1477      C1478   1.397       .  A
C1477      C1482   1.410   1_565  A
C1478      C1479   1.390   1_565  A
C1478      H1487   1.083       .  S
C1479      C1480   1.422       .  A
C1479      S1483   1.802       .  S
C1480      C1481   1.416       .  A
C1481      C1482   1.403       .  A
C1481      H1488   1.062       .  S
C1482      S1484   1.808   1_545  S
S1483      H1486   1.408       .  S
S1484      H1485   1.399       .  S
C1489      C1490   1.402       .  A
C1489      C1494   1.424       .  A
C1490      C1491   1.402       .  A
C1490      H1499   1.083       .  S
C1491      C1492   1.417       .  A
C1491      S1495   1.810       .  S
C1492      C1493   1.402       .  A
C1493      C1494   1.406       .  A
C1493      H1500   1.082       .  S
C1494      S1496   1.807       .  S
S1495      H1498   1.407       .  S
S1496      H1497   1.407       .  S
C1501      C1502   1.400       .  A
C1501      C1506   1.403       .  A
C1502      C1503   1.406       .  A
C1502      H1511   1.083       .  S
C1503      C1504   1.420       .  A
C1503      S1507   1.806       .  S
C1504      C1505   1.404       .  A
C1505      C1506   1.389       .  A
C1505      H1512   1.083       .  S
C1506      S1508   1.796       .  S
S1507      H1510   1.406       .  S
S1508      H1509   1.407       .  S
C1513      C1514   1.402       .  A
C1513      C1518   1.416       .  A
C1514      C1515   1.400       .  A
C1514      H1523   1.084       .  S
C1515      C1516   1.421       .  A
C1515      S1519   1.796       .  S
C1516      C1517   1.404       .  A
C1517      C1518   1.399       .  A
C1517      H1524   1.079       .  S
C1518      S1520   1.802       .  S
S1519      H1522   1.385       .  S
S1520      H1521   1.408       .  S
C1525      C1526   1.403       .  A
C1525      C1530   1.416       .  A
C1526      C1527   1.382       .  A
C1526      H1535   1.084       .  S
C1527      C1528   1.412       .  A
C1527      S1531   1.805       .  S
C1528      C1529   1.400       .  A
C1529      C1530   1.393       .  A
C1529      H1536   1.084       .  S
C1530      S1532   1.800       .  S
S1531      H1534   1.402       .  S
S1532      H1533   1.408       .  S
C1537      C1538   1.404       .  A
C1537      C1542   1.416       .  A
C1538      C1539   1.393       .  A
C1538      H1547   1.083       .  S
C1539      C1540   1.413       .  A
C1539      S1543   1.802       .  S
C1540      C1541   1.406       .  A
C1541      C1542   1.398       .  A
C1541      H1548   1.084       .  S
C1542      S1544   1.801       .  S
S1543      H1546   1.380       .  S
S1544      H1545   1.406       .  S
C1549      C1550   1.408       .  A
C1549      C1554   1.411       .  A
C1550      C1551   1.407       .  A
C1550      H1559   1.084       .  S
C1551      C1552   1.416       .  A
C1551      S1555   1.803       .  S
C1552      C1553   1.407       .  A
C1553      C1554   1.401       .  A
C1553      H1560   1.075       .  S
C1554      S1556   1.799   1_545  S
S1555      H1558   1.397       .  S
S1556      H1557   1.407   1_565  S
C1561      C1562   1.403       .  A
C1561      C1566   1.412       .  A
C1562      C1563   1.399       .  A
C1562      H1571   1.084       .  S
C1563      C1564   1.419       .  A
C1563      S1567   1.807       .  S
C1564      C1565   1.405       .  A
C1565      C1566   1.401       .  A
C1565      H1572   1.084       .  S
C1566      S1568   1.801       .  S
S1567      H1570   1.399       .  S
S1568      H1569   1.401       .  S
C1573      C1574   1.402       .  A
C1573      C1578   1.407       .  A
C1574      C1575   1.399       .  A
C1574      H1583   1.075   1_545  S
C1575      C1576   1.414       .  A
C1575      S1579   1.808   1_545  S
C1576      C1577   1.413       .  A
C1577      C1578   1.402       .  A
C1577      H1584   1.081       .  S
C1578      S1580   1.802       .  S
S1579      H1582   1.403   1_565  S
S1580      H1581   1.406       .  S
C1585      C1586   1.399       .  A
C1585      C1590   1.408       .  A
C1586      C1587   1.395       .  A
C1586      H1595   1.084       .  S
C1587      C1588   1.416       .  A
C1587      S1591   1.797       .  S
C1588      C1589   1.412       .  A
C1589      C1590   1.402       .  A
C1589      H1596   1.083       .  S
C1590      S1592   1.803       .  S
S1591      H1594   1.396       .  S
S1592      H1593   1.406       .  S
C1597      C1598   1.411       .  A
C1597      C1602   1.421       .  A
C1598      C1599   1.397       .  A
C1598      H1607   1.077       .  S
C1599      C1600   1.408       .  A
C1599      S1603   1.804       .  S
C1600      C1601   1.403       .  A
C1601      C1602   1.402       .  A
C1601      H1608   1.084       .  S
C1602      S1604   1.807       .  S
S1603      H1606   1.405       .  S
S1604      H1605   1.397       .  S
C1609      C1610   1.401       .  A
C1609      C1614   1.410       .  A
C1610      C1611   1.395       .  A
C1610      H1619   1.083       .  S
C1611      C1612   1.418       .  A
C1611      S1615   1.800       .  S
C1612      C1613   1.403       .  A
C1613      C1614   1.386       .  A
C1613      H1620   1.083       .  S
C1614      S1616   1.803       .  S
S1615      H1618   1.408       .  S
S1616      H1617   1.404       .  S
C1621      C1622   1.406       .  A
C1621      C1626   1.419       .  A
C1622      C1623   1.400       .  A
C1622      H1631   1.084       .  S
C1623      C1624   1.413       .  A
C1623      S1627   1.792       .  S
C1624      C1625   1.408       .  A
C1625      C1626   1.401       .  A
C1625      H1632   1.083       .  S
C1626      S1628   1.806       .  S
S1627      H1630   1.407       .  S
S1628      H1629   1.396       .  S
C1633      C1634   1.403       .  A
C1633      C1638   1.410       .  A
C1634      C1635   1.405       .  A
C1634      H1643   1.083       .  S
C1635      C1636   1.410       .  A
C1635      S1639   1.802       .  S
C1636      C1637   1.411       .  A
C1637      C1638   1.398       .  A
C1637      H1644   1.080       .  S
C1638      S1640   1.804       .  S
S1639      H1642   1.407       .  S
S1640      H1641   1.403       .  S
C1645      C1646   1.406       .  A
C1645      C1650   1.413       .  A
C1646      C1647   1.409       .  A
C1646      H1655   1.082       .  S
C1647      C1648   1.414       .  A
C1647      S1651   1.803       .  S
C1648      C1649   1.400       .  A
C1649      C1650   1.396       .  A
C1649      H1656   1.075       .  S
C1650      S1652   1.809       .  S
S1651      H1654   1.406       .  S
S1652      H1653   1.407       .  S
C1657      C1658   1.402       .  A
C1657      C1662   1.408       .  A
C1658      C1659   1.402       .  A
C1658      H1667   1.084       .  S
C1659      C1660   1.423       .  A
C1659      S1663   1.806       .  S
C1660      C1661   1.406       .  A
C1661      C1662   1.397       .  A
C1661      H1668   1.074       .  S
C1662      S1664   1.799       .  S
S1663      H1666   1.399       .  S
S1664      H1665   1.407       .  S
C1669      C1670   1.402       .  A
C1669      C1674   1.413       .  A
C1670      C1671   1.402       .  A
C1670      H1679   1.082       .  S
C1671      C1672   1.419       .  A
C1671      S1675   1.803       .  S
C1672      C1673   1.404       .  A
C1673      C1674   1.405       .  A
C1673      H1680   1.083       .  S
C1674      S1676   1.807       .  S
S1675      H1678   1.406       .  S
S1676      H1677   1.407       .  S
C1681      C1682   1.401       .  A
C1681      C1686   1.423       .  A
C1682      C1683   1.399       .  A
C1682      H1691   1.083       .  S
C1683      C1684   1.413       .  A
C1683      S1687   1.804       .  S
C1684      C1685   1.397       .  A
C1685      C1686   1.396       .  A
C1685      H1692   1.084       .  S
C1686      S1688   1.802       .  S
S1687      H1690   1.407       .  S
S1688      H1689   1.393       .  S
C1693      C1694   1.397       .  A
C1693      C1698   1.406       .  A
C1694      C1695   1.383       .  A
C1694      H1703   1.085       .  S
C1695      C1696   1.419       .  A
C1695      S1699   1.809       .  S
C1696      C1697   1.399       .  A
C1697      C1698   1.385       .  A
C1697      H1704   1.085       .  S
C1698      S1700   1.792       .  S
S1699      H1702   1.395       .  S
S1700      H1701   1.407       .  S
C1705      C1706   1.403       .  A
C1705      C1710   1.408       .  A
C1706      C1707   1.394       .  A
C1706      H1715   1.082       .  S
C1707      C1708   1.417       .  A
C1707      S1711   1.808       .  S
C1708      C1709   1.410       .  A
C1709      C1710   1.393       .  A
C1709      H1716   1.083       .  S
C1710      S1712   1.801       .  S
S1711      H1714   1.400       .  S
S1712      H1713   1.407       .  S
C1717      C1718   1.403       .  A
C1717      C1722   1.414       .  A
C1718      C1719   1.389       .  A
C1718      H1727   1.084       .  S
C1719      C1720   1.413       .  A
C1719      S1723   1.805       .  S
C1720      C1721   1.399       .  A
C1721      C1722   1.388       .  A
C1721      H1728   1.084       .  S
C1722      S1724   1.802       .  S
S1723      H1726   1.390       .  S
S1724      H1725   1.408       .  S
C1729      C1730   1.400       .  A
C1729      C1734   1.406       .  A
C1730      C1731   1.400       .  A
C1730      H1739   1.084       .  S
C1731      C1732   1.427       .  A
C1731      S1735   1.801       .  S
C1732      C1733   1.416       .  A
C1733      C1734   1.401       .  A
C1733      H1740   1.073       .  S
C1734      S1736   1.803       .  S
S1735      H1738   1.382       .  S
S1736      H1737   1.407       .  S
C1741      C1742   1.410       .  A
C1741      C1746   1.412       .  A
C1742      C1743   1.403       .  A
C1742      H1751   1.084       .  S
C1743      C1744   1.414       .  A
C1743      S1747   1.805       .  S
C1744      C1745   1.410       .  A
C1745      C1746   1.396       .  A
C1745      H1752   1.079       .  S
C1746      S1748   1.800       .  S
S1747      H1750   1.401       .  S
S1748      H1749   1.401   1_455  S
C1753      C1754   1.402       .  A
C1753      C1758   1.411       .  A
C1754      C1755   1.399       .  A
C1754      H1763   1.085   1_455  S
C1755      C1756   1.411       .  A
C1755      S1759   1.788   1_455  S
C1756      C1757   1.410       .  A
C1757      C1758   1.403       .  A
C1757      H1764   1.082       .  S
C1758      S1760   1.803       .  S
S1759      H1762   1.399       .  S
S1760      H1761   1.406       .  S
C1765      C1766   1.403       .  A
C1765      C1770   1.410       .  A
C1766      C1767   1.402       .  A
C1766      H1775   1.085       .  S
C1767      C1768   1.423       .  A
C1767      S1771   1.806       .  S
C1768      C1769   1.404       .  A
C1769      C1770   1.399       .  A
C1769      H1776   1.079       .  S
C1770      S1772   1.795       .  S
S1771      H1774   1.394       .  S
S1772      H1773   1.407       .  S
C1777      C1778   1.422       .  A
C1777      C1782   1.444       .  A
C1778      C1779   1.416       .  A
C1778      H1787   1.072       .  S
C1779      C1780   1.413   1_455  A
C1779      S1783   1.801       .  S
C1780      C1781   1.394       .  A
C1781      C1782   1.394   1_655  A
C1781      H1788   1.081       .  S
C1782      S1784   1.813   1_455  S
S1783      H1786   1.405   1_455  S
S1784      H1785   1.408       .  S
C1789      C1790   1.398       .  A
C1789      C1794   1.420       .  A
C1790      C1791   1.395       .  A
C1790      H1799   1.077       .  S
C1791      C1792   1.417       .  A
C1791      S1795   1.797       .  S
C1792      C1793   1.416       .  A
C1793      C1794   1.416       .  A
C1793      H1800   1.076       .  S
C1794      S1796   1.799       .  S
S1795      H1798   1.407       .  S
S1796      H1797   1.402       .  S
C1801      C1802   1.412       .  A
C1801      C1806   1.421       .  A
C1802      C1803   1.410       .  A
C1802      H1811   1.082       .  S
C1803      C1804   1.420       .  A
C1803      S1807   1.804       .  S
C1804      C1805   1.406       .  A
C1805      C1806   1.401       .  A
C1805      H1812   1.085       .  S
C1806      S1808   1.802       .  S
S1807      H1810   1.404       .  S
S1808      H1809   1.395       .  S
C1813      C1814   1.408       .  A
C1813      C1818   1.418       .  A
C1814      C1815   1.401       .  A
C1814      H1823   1.083       .  S
C1815      C1816   1.410       .  A
C1815      S1819   1.796       .  S
C1816      C1817   1.399       .  A
C1817      C1818   1.388       .  A
C1817      H1824   1.082       .  S
C1818      S1820   1.801       .  S
S1819      H1822   1.403       .  S
S1820      H1821   1.408       .  S
C1825      C1826   1.401       .  A
C1825      C1830   1.414       .  A
C1826      C1827   1.393       .  A
C1826      H1835   1.083       .  S
C1827      C1828   1.407       .  A
C1827      S1831   1.794       .  S
C1828      C1829   1.407       .  A
C1829      C1830   1.399       .  A
C1829      H1836   1.083       .  S
C1830      S1832   1.800       .  S
S1831      H1834   1.402       .  S
S1832      H1833   1.408       .  S
C1837      C1838   1.402       .  A
C1837      C1842   1.416       .  A
C1838      C1839   1.391       .  A
C1838      H1847   1.084       .  S
C1839      C1840   1.416       .  A
C1839      S1843   1.803       .  S
C1840      C1841   1.397       .  A
C1841      C1842   1.394       .  A
C1841      H1848   1.084       .  S
C1842      S1844   1.795       .  S
S1843      H1846   1.400       .  S
S1844      H1845   1.408       .  S
C1849      C1850   1.402       .  A
C1849      C1854   1.415       .  A
C1850      C1851   1.385       .  A
C1850      H1859   1.084       .  S
C1851      C1852   1.411       .  A
C1851      S1855   1.802       .  S
C1852      C1853   1.402       .  A
C1853      C1854   1.394       .  A
C1853      H1860   1.083       .  S
C1854      S1856   1.800       .  S
S1855      H1858   1.402       .  S
S1856      H1857   1.408       .  S
C1861      C1862   1.401       .  A
C1861      C1866   1.414       .  A
C1862      C1863   1.401       .  A
C1862      H1871   1.084       .  S
C1863      C1864   1.421       .  A
C1863      S1867   1.799       .  S
C1864      C1865   1.403       .  A
C1865      C1866   1.397       .  A
C1865      H1872   1.084       .  S
C1866      S1868   1.803       .  S
S1867      H1870   1.403   1_455  S
S1868      H1869   1.407       .  S
C1873      C1874   1.402       .  A
C1873      C1878   1.409       .  A
C1874      C1875   1.404       .  A
C1874      H1883   1.084       .  S
C1875      C1876   1.421       .  A
C1875      S1879   1.805       .  S
C1876      C1877   1.407       .  A
C1877      C1878   1.400       .  A
C1877      H1884   1.079       .  S
C1878      S1880   1.798       .  S
S1879      H1882   1.396       .  S
S1880      H1881   1.406       .  S
C1885      C1886   1.403       .  A
C1885      C1890   1.403       .  A
C1886      C1887   1.403       .  A
C1886      H1895   1.083   1_455  S
C1887      C1888   1.418       .  A
C1887      S1891   1.804   1_455  S
C1888      C1889   1.408       .  A
C1889      C1890   1.392       .  A
C1889      H1896   1.081       .  S
C1890      S1892   1.801       .  S
S1891      H1894   1.403   1_655  S
S1892      H1893   1.406       .  S
C1897      C1898   1.418       .  A
C1897      C1902   1.431       .  A
C1898      C1899   1.389       .  A
C1898      H1907   1.078       .  S
C1899      C1900   1.409       .  A
C1899      S1903   1.809   1_554  S
C1900      C1901   1.414       .  A
C1901      C1902   1.421       .  A
C1901      H1908   1.083       .  S
C1902      S1904   1.800       .  S
S1903      H1906   1.407       .  S
S1904      H1905   1.400       .  S
C1909      C1910   1.403       .  A
C1909      C1914   1.419       .  A
C1910      C1911   1.393       .  A
C1910      H1919   1.082       .  S
C1911      C1912   1.408       .  A
C1911      S1915   1.793       .  S
C1912      C1913   1.405       .  A
C1913      C1914   1.407       .  A
C1913      H1920   1.084       .  S
C1914      S1916   1.801       .  S
S1915      H1918   1.407       .  S
S1916      H1917   1.399       .  S
C1921      C1922   1.412       .  A
C1921      C1926   1.410       .  A
C1922      C1923   1.397       .  A
C1922      H1931   1.083       .  S
C1923      C1924   1.410       .  A
C1923      S1927   1.799       .  S
C1924      C1925   1.408       .  A
C1925      C1926   1.395       .  A
C1925      H1932   1.082       .  S
C1926      S1928   1.802       .  S
S1927      H1930   1.407       .  S
S1928      H1929   1.393       .  S
C1933      C1934   1.406       .  A
C1933      C1938   1.410       .  A
C1934      C1935   1.402       .  A
C1934      H1943   1.083       .  S
C1935      C1936   1.414       .  A
C1935      S1939   1.808       .  S
C1936      C1937   1.405       .  A
C1937      C1938   1.391       .  A
C1937      H1944   1.083       .  S
C1938      S1940   1.805       .  S
S1939      H1942   1.400       .  S
S1940      H1941   1.408       .  S
C1945      C1946   1.405       .  A
C1945      C1950   1.419       .  A
C1946      C1947   1.398       .  A
C1946      H1955   1.084       .  S
C1947      C1948   1.414       .  A
C1947      S1951   1.799       .  S
C1948      C1949   1.403       .  A
C1949      C1950   1.398       .  A
C1949      H1956   1.084       .  S
C1950      S1952   1.800       .  S
S1951      H1954   1.398       .  S
S1952      H1953   1.408       .  S
C1957      C1958   1.403       .  A
C1957      C1962   1.418       .  A
C1958      C1959   1.390       .  A
C1958      H1967   1.084       .  S
C1959      C1960   1.413       .  A
C1959      S1963   1.805       .  S
C1960      C1961   1.402       .  A
C1961      C1962   1.400       .  A
C1961      H1968   1.084       .  S
C1962      S1964   1.797       .  S
S1963      H1966   1.401       .  S
S1964      H1965   1.408       .  S
C1969      C1970   1.401       .  A
C1969      C1974   1.408       .  A
C1970      C1971   1.401       .  A
C1970      H1979   1.084       .  S
C1971      C1972   1.422       .  A
C1971      S1975   1.806       .  S
C1972      C1973   1.404       .  A
C1973      C1974   1.396       .  A
C1973      H1980   1.084       .  S
C1974      S1976   1.796       .  S
S1975      H1978   1.397       .  S
S1976      H1977   1.407       .  S
C1981      C1982   1.399       .  A
C1981      C1986   1.410       .  A
C1982      C1983   1.403       .  A
C1982      H1991   1.082       .  S
C1983      C1984   1.422       .  A
C1983      S1987   1.800       .  S
C1984      C1985   1.404       .  A
C1985      C1986   1.396       .  A
C1985      H1992   1.076       .  S
C1986      S1988   1.804       .  S
S1987      H1990   1.384       .  S
S1988      H1989   1.407       .  S
C1993      C1994   1.404       .  A
C1993      C1998   1.414       .  A
C1994      C1995   1.400       .  A
C1994      H2003   1.081       .  S
C1995      C1996   1.414       .  A
C1995      S1999   1.797       .  S
C1996      C1997   1.413       .  A
C1997      C1998   1.410       .  A
C1997      H2004   1.083       .  S
C1998      S2000   1.796       .  S
S1999      H2002   1.406       .  S
S2000      H2001   1.407       .  S
C2005      C2006   1.408       .  A
C2005      C2010   1.412       .  A
C2006      C2007   1.400       .  A
C2006      H2015   1.084       .  S
C2007      C2008   1.411       .  A
C2007      S2011   1.802       .  S
C2008      C2009   1.405       .  A
C2009      C2010   1.395       .  A
C2009      H2016   1.080       .  S
C2010      S2012   1.798       .  S
S2011      H2014   1.398       .  S
S2012      H2013   1.407       .  S
C2017      C2018   1.401       .  A
C2017      C2022   1.411       .  A
C2018      C2019   1.400       .  A
C2018      H2027   1.084       .  S
C2019      C2020   1.421       .  A
C2019      S2023   1.803       .  S
C2020      C2021   1.405       .  A
C2021      C2022   1.399       .  A
C2021      H2028   1.084       .  S
C2022      S2024   1.795       .  S
S2023      H2026   1.400       .  S
S2024      H2025   1.406       .  S
C2029      C2030   1.405       .  A
C2029      C2034   1.413       .  A
C2030      C2031   1.398       .  A
C2030      H2039   1.072       .  S
C2031      C2032   1.412       .  A
C2031      S2035   1.803       .  S
C2032      C2033   1.399       .  A
C2033      C2034   1.396       .  A
C2033      H2040   1.084       .  S
C2034      S2036   1.789       .  S
S2035      H2038   1.407       .  S
S2036      H2037   1.401       .  S
C2041      C2042   1.399       .  A
C2041      C2046   1.413       .  A
C2042      C2043   1.394       .  A
C2042      H2051   1.080       .  S
C2043      C2044   1.416       .  A
C2043      S2047   1.811       .  S
C2044      C2045   1.400       .  A
C2045      C2046   1.392       .  A
C2045      H2052   1.079       .  S
C2046      S2048   1.801       .  S
S2047      H2050   1.398       .  S
S2048      H2049   1.408       .  S
C2053      C2054   1.406       .  A
C2053      C2058   1.414       .  A
C2054      C2055   1.401       .  A
C2054      H2063   1.083       .  S
C2055      C2056   1.418       .  A
C2055      S2059   1.807       .  S
C2056      C2057   1.394       .  A
C2057      C2058   1.389       .  A
C2057      H2064   1.083       .  S
C2058      S2060   1.786       .  S
S2059      H2062   1.401       .  S
S2060      H2061   1.408       .  S
C2065      C2066   1.405       .  A
C2065      C2070   1.414       .  A
C2066      C2067   1.392       .  A
C2066      H2075   1.084       .  S
C2067      C2068   1.415       .  A
C2067      S2071   1.807       .  S
C2068      C2069   1.407       .  A
C2069      C2070   1.395       .  A
C2069      H2076   1.083       .  S
C2070      S2072   1.801       .  S
S2071      H2074   1.403       .  S
S2072      H2073   1.408       .  S
C2077      C2078   1.407       .  A
C2077      C2082   1.411       .  A
C2078      C2079   1.400       .  A
C2078      H2087   1.084       .  S
C2079      C2080   1.417       .  A
C2079      S2083   1.808       .  S
C2080      C2081   1.408       .  A
C2081      C2082   1.399       .  A
C2081      H2088   1.081       .  S
C2082      S2084   1.797       .  S
S2083      H2086   1.397       .  S
S2084      H2085   1.407       .  S
C2089      C2090   1.401       .  A
C2089      C2094   1.415       .  A
C2090      C2091   1.402       .  A
C2090      H2099   1.084       .  S
C2091      C2092   1.421       .  A
C2091      S2095   1.796       .  S
C2092      C2093   1.401       .  A
C2093      C2094   1.399       .  A
C2093      H2100   1.084       .  S
C2094      S2096   1.801       .  S
S2095      H2098   1.397       .  S
S2096      H2097   1.407       .  S
C2101      C2102   1.407       .  A
C2101      C2106   1.409       .  A
C2102      C2103   1.410       .  A
C2102      H2111   1.084       .  S
C2103      C2104   1.421       .  A
C2103      S2107   1.803       .  S
C2104      C2105   1.409       .  A
C2105      C2106   1.402       .  A
C2105      H2112   1.074       .  S
C2106      S2108   1.795       .  S
S2107      H2110   1.392       .  S
S2108      H2109   1.406       .  S
C2113      C2114   1.408       .  A
C2113      C2118   1.416       .  A
C2114      C2115   1.401       .  A
C2114      H2123   1.083       .  S
C2115      C2116   1.411       .  A
C2115      S2119   1.804       .  S
C2116      C2117   1.402       .  A
C2117      C2118   1.403       .  A
C2117      H2124   1.084       .  S
C2118      S2120   1.795       .  S
S2119      H2122   1.406       .  S
S2120      H2121   1.388       .  S
C2125      C2126   1.411   1_565  A
C2125      C2130   1.425       .  A
C2126      C2127   1.403       .  A
C2126      H2135   1.066       .  S
C2127      C2128   1.413       .  A
C2127      S2131   1.801       .  S
C2128      C2129   1.406       .  A
C2129      C2130   1.420   1_545  A
C2129      H2136   1.081       .  S
C2130      S2132   1.806       .  S
S2131      H2134   1.407       .  S
S2132      H2133   1.407       .  S
C2137      C2138   1.416       .  A
C2137      C2142   1.412       .  A
C2138      C2139   1.428       .  A
C2138      H2147   1.081       .  S
C2139      C2140   1.427       .  A
C2139      S2143   1.802       .  S
C2140      C2141   1.411       .  A
C2141      C2142   1.386       .  A
C2141      H2148   1.078       .  S
C2142      S2144   1.808       .  S
S2143      H2146   1.405       .  S
S2144      H2145   1.403       .  S
C2149      C2150   1.414       .  A
C2149      C2154   1.422       .  A
C2150      C2151   1.405       .  A
C2150      H2159   1.074       .  S
C2151      C2152   1.413       .  A
C2151      S2155   1.797       .  S
C2152      C2153   1.411       .  A
C2153      C2154   1.407       .  A
C2153      H2160   1.076       .  S
C2154      S2156   1.798       .  S
S2155      H2158   1.395       .  S
S2156      H2157   1.397       .  S
C2161      C2162   1.413       .  A
C2161      C2166   1.424       .  A
C2162      C2163   1.415       .  A
C2162      H2171   1.080       .  S
C2163      C2164   1.419   1_545  A
C2163      S2167   1.803   1_545  S
C2164      C2165   1.396   1_565  A
C2165      C2166   1.395       .  A
C2165      H2172   1.079   1_545  S
C2166      S2168   1.810       .  S
S2167      H2170   1.405       .  S
S2168      H2169   1.407       .  S
C2173      C2174   1.412       .  A
C2173      C2178   1.410       .  A
C2174      C2175   1.412       .  A
C2174      H2183   1.080       .  S
C2175      C2176   1.418       .  A
C2175      S2179   1.799       .  S
C2176      C2177   1.414       .  A
C2177      C2178   1.402       .  A
C2177      H2184   1.078       .  S
C2178      S2180   1.801       .  S
S2179      H2182   1.400       .  S
S2180      H2181   1.407       .  S
C2185      C2186   1.414       .  A
C2185      C2190   1.416   1_655  A
C2186      C2187   1.409   1_655  A
C2186      H2195   1.077       .  S
C2187      C2188   1.422       .  A
C2187      S2191   1.801       .  S
C2188      C2189   1.408       .  A
C2189      C2190   1.404       .  A
C2189      H2196   1.083       .  S
C2190      S2192   1.793       .  S
S2191      H2194   1.388       .  S
S2192      H2193   1.407       .  S
C2197      C2198   1.414       .  A
C2197      C2202   1.425   1_655  A
C2198      C2199   1.399   1_655  A
C2198      H2207   1.081       .  S
C2199      C2200   1.410       .  A
C2199      S2203   1.801   1_455  S
C2200      C2201   1.404       .  A
C2201      C2202   1.413       .  A
C2201      H2208   1.083       .  S
C2202      S2204   1.797       .  S
S2203      H2206   1.406       .  S
S2204      H2205   1.408       .  S
C2209      C2210   1.413       .  A
C2209      C2214   1.410       .  A
C2210      C2211   1.435       .  A
C2210      H2219   1.082       .  S
C2211      C2212   1.436       .  A
C2211      S2215   1.798       .  S
C2212      C2213   1.421       .  A
C2213      C2214   1.390       .  A
C2213      H2220   1.073       .  S
C2214      S2216   1.807       .  S
S2215      H2218   1.407       .  S
S2216      H2217   1.407       .  S
C2221      C2222   1.413       .  A
C2221      C2226   1.428       .  A
C2222      C2223   1.393       .  A
C2222      H2231   1.074       .  S
C2223      C2224   1.420       .  A
C2223      S2227   1.808       .  S
C2224      C2225   1.419       .  A
C2225      C2226   1.423       .  A
C2225      H2232   1.080       .  S
C2226      S2228   1.797       .  S
S2227      H2230   1.408       .  S
S2228      H2229   1.406       .  S
C2233      C2234   1.413       .  A
C2233      C2238   1.427   1_565  A
C2234      C2235   1.408   1_565  A
C2234      H2243   1.084       .  S
C2235      C2236   1.418       .  A
C2235      S2239   1.805       .  S
C2236      C2237   1.411       .  A
C2237      C2238   1.407       .  A
C2237      H2244   1.082       .  S
C2238      S2240   1.811       .  S
S2239      H2242   1.398       .  S
S2240      H2241   1.394   1_545  S
C2245      C2246   1.426       .  A
C2245      C2250   1.411   1_565  A
C2246      C2247   1.403   1_565  A
C2246      H2255   1.067       .  S
C2247      C2248   1.406       .  A
C2247      S2251   1.794   1_545  S
C2248      C2249   1.411       .  A
C2249      C2250   1.416       .  A
C2249      H2256   1.079       .  S
C2250      S2252   1.796       .  S
S2251      H2254   1.404   1_565  S
S2252      H2253   1.405       .  S
C2257      C2258   1.410       .  A
C2257      C2262   1.411       .  A
C2258      C2259   1.412       .  A
C2258      H2267   1.084       .  S
C2259      C2260   1.428       .  A
C2259      S2263   1.802       .  S
C2260      C2261   1.415       .  A
C2261      C2262   1.401       .  A
C2261      H2268   1.081       .  S
C2262      S2264   1.807       .  S
S2263      H2266   1.394       .  S
S2264      H2265   1.406       .  S
C2269      C2270   1.401   1_655  A
C2269      C2274   1.420   1_655  A
C2270      C2271   1.412       .  A
C2270      H2279   1.084       .  S
C2271      C2272   1.424       .  A
C2271      S2275   1.782       .  S
C2272      C2273   1.417       .  A
C2273      C2274   1.395       .  A
C2273      H2280   1.078       .  S
C2274      S2276   1.816   1_455  S
S2275      H2278   1.408       .  S
S2276      H2277   1.399       .  S
C2281      C2282   1.420       .  A
C2281      C2286   1.426       .  A
C2282      C2283   1.382       .  A
C2282      H2291   1.066       .  S
C2283      C2284   1.404       .  A
C2283      S2287   1.806       .  S
C2284      C2285   1.417       .  A
C2285      C2286   1.425       .  A
C2285      H2292   1.081       .  S
C2286      S2288   1.802       .  S
S2287      H2290   1.408       .  S
S2288      H2289   1.406       .  S
C2293      C2294   1.416       .  A
C2293      C2298   1.420       .  A
C2294      C2295   1.421       .  A
C2294      H2303   1.056       .  S
C2295      C2296   1.424       .  A
C2295      S2299   1.807       .  S
C2296      C2297   1.406       .  A
C2297      C2298   1.392       .  A
C2297      H2304   1.081       .  S
C2298      S2300   1.803       .  S
S2299      H2302   1.395       .  S
S2300      H2301   1.406       .  S
C2305      C2306   1.407   1_655  A
C2305      C2310   1.427       .  A
C2306      C2307   1.393       .  A
C2306      H2315   1.066       .  S
C2307      C2308   1.414       .  A
C2307      S2311   1.804       .  S
C2308      C2309   1.410       .  A
C2309      C2310   1.418   1_455  A
C2309      H2316   1.082       .  S
C2310      S2312   1.801       .  S
S2311      H2314   1.400       .  S
S2312      H2313   1.401       .  S
C2317      C2318   1.422       .  A
C2317      C2322   1.438       .  A
C2318      C2319   1.418       .  A
C2318      H2327   1.075       .  S
C2319      C2320   1.417       .  A
C2319      S2323   1.804       .  S
C2320      C2321   1.393       .  A
C2321      C2322   1.391       .  A
C2321      H2328   1.084   1_554  S
C2322      S2324   1.811       .  S
S2323      H2326   1.402       .  S
S2324      H2325   1.407   1_554  S
C2329      C2330   1.417       .  A
C2329      C2334   1.425       .  A
C2330      C2331   1.405       .  A
C2330      H2339   1.068       .  S
C2331      C2332   1.411       .  A
C2331      S2335   1.803       .  S
C2332      C2333   1.402       .  A
C2333      C2334   1.401       .  A
C2333      H2340   1.083       .  S
C2334      S2336   1.801       .  S
S2335      H2338   1.405       .  S
S2336      H2337   1.406       .  S
C2341      C2342   1.413       .  A
C2341      C2346   1.417       .  A
C2342      C2343   1.409       .  A
C2342      H2351   1.078       .  S
C2343      C2344   1.416       .  A
C2343      S2347   1.793       .  S
C2344      C2345   1.397       .  A
C2345      C2346   1.398       .  A
C2345      H2352   1.064       .  S
C2346      S2348   1.802       .  S
S2347      H2350   1.405       .  S
S2348      H2349   1.407       .  S
C2353      C2354   1.418       .  A
C2353      C2358   1.434       .  A
C2354      C2355   1.417       .  A
C2354      H2363   1.073       .  S
C2355      C2356   1.419       .  A
C2355      S2359   1.807       .  S
C2356      C2357   1.394       .  A
C2357      C2358   1.391       .  A
C2357      H2364   1.085       .  S
C2358      S2360   1.802       .  S
S2359      H2362   1.402       .  S
S2360      H2361   1.404       .  S
C2365      C2366   1.417       .  A
C2365      C2370   1.416       .  A
C2366      C2367   1.424       .  A
C2366      H2375   1.082       .  S
C2367      C2368   1.429       .  A
C2367      S2371   1.797       .  S
C2368      C2369   1.410       .  A
C2369      C2370   1.388       .  A
C2369      H2376   1.080       .  S
C2370      S2372   1.797   1_554  S
S2371      H2374   1.407       .  S
S2372      H2373   1.406   1_556  S
C2377      C2378   1.411       .  A
C2377      C2382   1.422       .  A
C2378      C2379   1.405       .  A
C2378      H2387   1.084       .  S
C2379      C2380   1.421       .  A
C2379      S2383   1.808       .  S
C2380      C2381   1.412       .  A
C2381      C2382   1.408       .  A
C2381      H2388   1.083       .  S
C2382      S2384   1.807       .  S
S2383      H2386   1.391       .  S
S2384      H2385   1.399       .  S
C2389      C2390   1.408       .  A
C2389      C2394   1.423       .  A
C2390      C2391   1.414       .  A
C2390      H2399   1.083       .  S
C2391      C2392   1.426       .  A
C2391      S2395   1.803       .  S
C2392      C2393   1.404       .  A
C2393      C2394   1.401       .  A
C2393      H2400   1.082       .  S
C2394      S2396   1.794       .  S
S2395      H2398   1.407       .  S
S2396      H2397   1.406       .  S
C2401      C2402   1.416       .  A
C2401      C2406   1.410       .  A
C2402      C2403   1.431       .  A
C2402      H2411   1.081       .  S
C2403      C2404   1.430       .  A
C2403      S2407   1.802       .  S
C2404      C2405   1.407       .  A
C2405      C2406   1.381       .  A
C2405      H2412   1.082       .  S
C2406      S2408   1.793       .  S
S2407      H2410   1.407       .  S
S2408      H2409   1.402       .  S
C2413      C2414   1.412       .  A
C2413      C2418   1.430       .  A
C2414      C2415   1.403       .  A
C2414      H2423   1.085       .  S
C2415      C2416   1.414       .  A
C2415      S2419   1.797       .  S
C2416      C2417   1.395       .  A
C2417      C2418   1.395       .  A
C2417      H2424   1.085       .  S
C2418      S2420   1.785       .  S
S2419      H2422   1.401       .  S
S2420      H2421   1.396       .  S
C2425      C2426   1.410       .  A
C2425      C2430   1.409       .  A
C2426      C2427   1.408       .  A
C2426      H2435   1.082       .  S
C2427      C2428   1.426       .  A
C2427      S2431   1.799       .  S
C2428      C2429   1.408       .  A
C2429      C2430   1.375       .  A
C2429      H2436   1.078       .  S
C2430      S2432   1.795       .  S
S2431      H2434   1.405       .  S
S2432      H2433   1.407       .  S
C2437      C2438   1.410       .  A
C2437      C2442   1.422       .  A
C2438      C2439   1.398       .  A
C2438      H2447   1.080       .  S
C2439      C2440   1.411       .  A
C2439      S2443   1.804       .  S
C2440      C2441   1.399       .  A
C2441      C2442   1.400       .  A
C2441      H2448   1.083       .  S
C2442      S2444   1.794       .  S
S2443      H2446   1.406       .  S
S2444      H2445   1.406       .  S
C2449      C2450   1.392       .  A
C2449      C2454   1.411       .  A
C2450      C2451   1.380       .  A
C2450      H2459   1.086       .  S
C2451      C2452   1.432       .  A
C2451      S2455   1.813       .  S
C2452      C2453   1.415       .  A
C2453      C2454   1.407       .  A
C2453      H2460   1.068       .  S
C2454      S2456   1.805       .  S
S2455      H2458   1.408       .  S
S2456      H2457   1.401       .  S
C2461      C2462   1.403       .  A
C2461      C2466   1.413       .  A
C2462      C2463   1.397       .  A
C2462      H2471   1.080       .  S
C2463      C2464   1.420       .  A
C2463      S2467   1.805       .  S
C2464      C2465   1.404       .  A
C2465      C2466   1.398       .  A
C2465      H2472   1.083       .  S
C2466      S2468   1.798       .  S
S2467      H2470   1.399       .  S
S2468      H2469   1.406       .  S
C2473      C2474   1.393       .  A
C2473      C2478   1.413       .  A
C2474      C2475   1.382       .  A
C2474      H2483   1.080       .  S
C2475      C2476   1.441       .  A
C2475      S2479   1.818       .  S
C2476      C2477   1.421       .  A
C2477      C2478   1.414       .  A
C2477      H2484   1.075       .  S
C2478      S2480   1.802       .  S
S2479      H2482   1.407       .  S
S2480      H2481   1.405       .  S
C2485      C2486   1.408       .  A
C2485      C2490   1.425       .  A
C2486      C2487   1.399       .  A
C2486      H2495   1.084       .  S
C2487      C2488   1.413       .  A
C2487      S2491   1.808       .  S
C2488      C2489   1.400       .  A
C2489      C2490   1.397       .  A
C2489      H2496   1.083       .  S
C2490      S2492   1.796       .  S
S2491      H2494   1.407       .  S
S2492      H2493   1.406       .  S
C2497      C2498   1.404       .  A
C2497      C2502   1.422       .  A
C2498      C2499   1.383       .  A
C2498      H2507   1.081       .  S
C2499      C2500   1.418       .  A
C2499      S2503   1.811       .  S
C2500      C2501   1.411       .  A
C2501      C2502   1.417       .  A
C2501      H2508   1.082       .  S
C2502      S2504   1.804       .  S
S2503      H2506   1.407       .  S
S2504      H2505   1.407       .  S
C2509      C2510   1.414       .  A
C2509      C2514   1.412       .  A
C2510      C2511   1.422       .  A
C2510      H2519   1.080       .  S
C2511      C2512   1.425       .  A
C2511      S2515   1.802       .  S
C2512      C2513   1.407       .  A
C2513      C2514   1.379       .  A
C2513      H2520   1.079       .  S
C2514      S2516   1.799       .  S
S2515      H2518   1.407       .  S
S2516      H2517   1.405       .  S
C2521      C2522   1.405       .  A
C2521      C2526   1.414       .  A
C2522      C2523   1.397       .  A
C2522      H2531   1.084       .  S
C2523      C2524   1.424       .  A
C2523      S2527   1.807       .  S
C2524      C2525   1.408       .  A
C2525      C2526   1.398       .  A
C2525      H2532   1.084       .  S
C2526      S2528   1.805       .  S
S2527      H2530   1.400       .  S
S2528      H2529   1.392       .  S
C2533      C2534   1.395       .  A
C2533      C2538   1.418       .  A
C2534      C2535   1.381       .  A
C2534      H2543   1.084       .  S
C2535      C2536   1.435       .  A
C2535      S2539   1.808       .  S
C2536      C2537   1.419       .  A
C2537      C2538   1.415       .  A
C2537      H2544   1.076       .  S
C2538      S2540   1.802       .  S
S2539      H2542   1.399       .  S
S2540      H2541   1.405       .  S
C2545      C2546   1.408       .  A
C2545      C2550   1.426       .  A
C2546      C2547   1.395       .  A
C2546      H2555   1.085       .  S
C2547      C2548   1.415       .  A
C2547      S2551   1.795       .  S
C2548      C2549   1.406       .  A
C2549      C2550   1.405       .  A
C2549      H2556   1.083       .  S
C2550      S2552   1.802       .  S
S2551      H2554   1.397       .  S
S2552      H2553   1.402       .  S
C2557      C2558   1.396       .  A
C2557      C2562   1.420       .  A
C2558      C2559   1.380       .  A
C2558      H2567   1.085       .  S
C2559      C2560   1.422       .  A
C2559      S2563   1.793       .  S
C2560      C2561   1.414       .  A
C2561      C2562   1.412       .  A
C2561      H2568   1.079       .  S
C2562      S2564   1.803       .  S
S2563      H2566   1.407       .  S
S2564      H2565   1.403       .  S
C2569      C2570   1.411       .  A
C2569      C2574   1.425       .  A
C2570      C2571   1.385       .  A
C2570      H2579   1.056       .  S
C2571      C2572   1.402       .  A
C2571      S2575   1.801       .  S
C2572      C2573   1.402       .  A
C2573      C2574   1.403       .  A
C2573      H2580   1.082       .  S
C2574      S2576   1.799       .  S
S2575      H2578   1.405       .  S
S2576      H2577   1.405       .  S
C2581      C2582   1.395       .  A
C2581      C2586   1.411       .  A
C2582      C2583   1.398       .  A
C2582      H2591   1.084       .  S
C2583      C2584   1.431       .  A
C2583      S2587   1.789       .  S
C2584      C2585   1.412       .  A
C2585      C2586   1.391       .  A
C2585      H2592   1.081       .  S
C2586      S2588   1.799       .  S
S2587      H2590   1.393       .  S
S2588      H2589   1.403       .  S
C2593      C2594   1.412       .  A
C2593      C2598   1.418       .  A
C2594      C2595   1.398       .  A
C2594      H2603   1.076       .  S
C2595      C2596   1.408       .  A
C2595      S2599   1.803       .  S
C2596      C2597   1.407       .  A
C2597      C2598   1.397       .  A
C2597      H2604   1.079       .  S
C2598      S2600   1.804       .  S
S2599      H2602   1.406       .  S
S2600      H2601   1.386       .  S
C2605      C2606   1.395       .  A
C2605      C2610   1.426       .  A
C2606      C2607   1.382       .  A
C2606      H2615   1.083       .  S
C2607      C2608   1.410       .  A
C2607      S2611   1.784       .  S
C2608      C2609   1.410       .  A
C2609      C2610   1.418       .  A
C2609      H2616   1.076       .  S
C2610      S2612   1.801       .  S
S2611      H2614   1.405       .  S
S2612      H2613   1.389       .  S
C2617      C2618   1.397       .  A
C2617      C2622   1.417       .  A
C2618      C2619   1.393       .  A
C2618      H2627   1.086       .  S
C2619      C2620   1.433       .  A
C2619      S2623   1.803       .  S
C2620      C2621   1.414       .  A
C2621      C2622   1.400       .  A
C2621      H2628   1.071       .  S
C2622      S2624   1.808       .  S
S2623      H2626   1.408       .  S
S2624      H2625   1.404       .  S
C2629      C2630   1.408       .  A
C2629      C2634   1.405       .  A
C2630      C2631   1.406       .  A
C2630      H2639   1.068       .  S
C2631      C2632   1.413       .  A
C2631      S2635   1.799       .  S
C2632      C2633   1.425       .  A
C2633      C2634   1.400       .  A
C2633      H2640   1.077       .  S
C2634      S2636   1.808       .  S
S2635      H2638   1.408       .  S
S2636      H2637   1.406       .  S
C2641      C2642   1.412       .  A
C2641      C2646   1.404       .  A
C2642      C2643   1.409       .  A
C2642      H2651   1.083       .  S
C2643      C2644   1.419       .  A
C2643      S2647   1.799       .  S
C2644      C2645   1.400       .  A
C2645      C2646   1.391       .  A
C2645      H2652   1.074       .  S
C2646      S2648   1.797       .  S
S2647      H2650   1.407       .  S
S2648      H2649   1.407       .  S
C2653      C2654   1.409       .  A
C2653      C2658   1.417       .  A
C2654      C2655   1.405       .  A
C2654      H2663   1.083       .  S
C2655      C2656   1.415       .  A
C2655      S2659   1.806       .  S
C2656      C2657   1.401       .  A
C2657      C2658   1.387       .  A
C2657      H2664   1.082       .  S
C2658      S2660   1.799       .  S
S2659      H2662   1.406       .  S
S2660      H2661   1.403       .  S
C2665      C2666   1.416       .  A
C2665      C2670   1.419       .  A
C2666      C2667   1.410       .  A
C2666      H2675   1.074       .  S
C2667      C2668   1.418       .  A
C2667      S2671   1.801       .  S
C2668      C2669   1.402       .  A
C2669      C2670   1.377       .  A
C2669      H2676   1.080       .  S
C2670      S2672   1.796       .  S
S2671      H2674   1.406       .  S
S2672      H2673   1.396       .  S
C2677      C2678   1.401       .  A
C2677      C2682   1.422       .  A
C2678      C2679   1.393       .  A
C2678      H2687   1.084       .  S
C2679      C2680   1.415       .  A
C2679      S2683   1.793       .  S
C2680      C2681   1.409       .  A
C2681      C2682   1.407       .  A
C2681      H2688   1.083       .  S
C2682      S2684   1.801       .  S
S2683      H2686   1.407       .  S
S2684      H2685   1.398       .  S
C2689      C2690   1.393       .  A
C2689      C2694   1.419       .  A
C2690      C2691   1.380       .  A
C2690      H2699   1.084       .  S
C2691      C2692   1.429       .  A
C2691      S2695   1.803       .  S
C2692      C2693   1.410       .  A
C2693      C2694   1.414       .  A
C2693      H2700   1.078       .  S
C2694      S2696   1.803       .  S
S2695      H2698   1.405       .  S
S2696      H2697   1.405       .  S
C2701      C2702   1.399       .  A
C2701      C2706   1.430       .  A
C2702      C2703   1.384       .  A
C2702      H2711   1.081       .  S
C2703      C2704   1.424       .  A
C2703      S2707   1.793       .  S
C2704      C2705   1.418       .  A
C2705      C2706   1.427       .  A
C2705      H2712   1.080       .  S
C2706      S2708   1.798       .  S
S2707      H2710   1.405       .  S
S2708      H2709   1.405       .  S
C2713      C2714   1.411   1_565  A
C2713      C2718   1.413       .  A
C2714      C2715   1.420       .  A
C2714      H2723   1.082       .  S
C2715      C2716   1.433       .  A
C2715      S2719   1.795       .  S
C2716      C2717   1.416       .  A
C2717      C2718   1.388   1_545  A
C2717      H2724   1.077   1_545  S
C2718      S2720   1.807       .  S
S2719      H2722   1.404       .  S
S2720      H2721   1.400       .  S
C2725      C2726   1.398       .  A
C2725      C2730   1.416   1_565  A
C2726      C2727   1.406   1_565  A
C2726      H2735   1.084       .  S
C2727      C2728   1.426       .  A
C2727      S2731   1.787       .  S
C2728      C2729   1.413       .  A
C2729      C2730   1.405       .  A
C2729      H2736   1.075       .  S
C2730      S2732   1.797       .  S
S2731      H2734   1.408   1_545  S
S2732      H2733   1.404   1_545  S
C2737      C2738   1.407       .  A
C2737      C2742   1.417       .  A
C2738      C2739   1.404       .  A
C2738      H2747   1.083       .  S
C2739      C2740   1.416       .  A
C2739      S2743   1.800       .  S
C2740      C2741   1.403       .  A
C2741      C2742   1.397       .  A
C2741      H2748   1.078       .  S
C2742      S2744   1.805       .  S
S2743      H2746   1.406       .  S
S2744      H2745   1.405       .  S
C2749      C2750   1.417       .  A
C2749      C2754   1.424   1_455  A
C2750      C2751   1.418       .  A
C2750      H2759   1.068       .  S
C2751      C2752   1.420   1_455  A
C2751      S2755   1.801       .  S
C2752      C2753   1.405       .  A
C2753      C2754   1.391       .  A
C2753      H2760   1.083       .  S
C2754      S2756   1.800       .  S
S2755      H2758   1.405   1_455  S
S2756      H2757   1.406       .  S
C2761      C2762   1.420       .  A
C2761      C2766   1.418       .  A
C2762      C2763   1.424       .  A
C2762      H2771   1.080       .  S
C2763      C2764   1.426       .  A
C2763      S2767   1.801       .  S
C2764      C2765   1.406       .  A
C2765      C2766   1.382       .  A
C2765      H2772   1.079       .  S
C2766      S2768   1.802       .  S
S2767      H2770   1.406       .  S
S2768      H2769   1.402       .  S
C2773      C2774   1.408       .  A
C2773      C2778   1.411       .  A
C2774      C2775   1.402       .  A
C2774      H2783   1.077       .  S
C2775      C2776   1.424   1_455  A
C2775      S2779   1.804       .  S
C2776      C2777   1.417       .  A
C2777      C2778   1.412   1_655  A
C2777      H2784   1.083       .  S
C2778      S2780   1.802       .  S
S2779      H2782   1.393   1_455  S
S2780      H2781   1.406   1_455  S
C2785      C2786   1.412       .  A
C2785      C2790   1.418       .  A
C2786      C2787   1.407       .  A
C2786      H2795   1.076       .  S
C2787      C2788   1.420       .  A
C2787      S2791   1.799       .  S
C2788      C2789   1.408       .  A
C2789      C2790   1.404       .  A
C2789      H2796   1.083       .  S
C2790      S2792   1.802       .  S
S2791      H2794   1.399       .  S
S2792      H2793   1.407       .  S
C2797      C2798   1.421       .  A
C2797      C2802   1.429       .  A
C2798      C2799   1.391       .  A
C2798      H2807   1.076       .  S
C2799      C2800   1.403       .  A
C2799      S2803   1.802       .  S
C2800      C2801   1.407       .  A
C2801      C2802   1.410       .  A
C2801      H2808   1.082       .  S
C2802      S2804   1.795       .  S
S2803      H2806   1.408       .  S
S2804      H2805   1.402       .  S
C2809      C2810   1.411       .  A
C2809      C2814   1.431       .  A
C2810      C2811   1.400       .  A
C2810      H2819   1.082       .  S
C2811      C2812   1.413       .  A
C2811      S2815   1.807       .  S
C2812      C2813   1.405       .  A
C2813      C2814   1.405       .  A
C2813      H2820   1.073       .  S
C2814      S2816   1.805       .  S
S2815      H2818   1.405   1_554  S
S2816      H2817   1.378       .  S
C2821      C2822   1.412       .  A
C2821      C2826   1.411       .  A
C2822      C2823   1.415       .  A
C2822      H2831   1.080       .  S
C2823      C2824   1.413       .  A
C2823      S2827   1.804       .  S
C2824      C2825   1.422       .  A
C2825      C2826   1.404       .  A
C2825      H2832   1.080   1_554  S
C2826      S2828   1.802       .  S
S2827      H2830   1.407       .  S
S2828      H2829   1.404       .  S
C2833      C2834   1.422       .  A
C2833      C2838   1.423       .  A
C2834      C2835   1.403       .  A
C2834      H2843   1.079       .  S
C2835      C2836   1.418       .  A
C2835      S2839   1.802   1_556  S
C2836      C2837   1.408       .  A
C2837      C2838   1.411       .  A
C2837      H2844   1.074       .  S
C2838      S2840   1.782       .  S
S2839      H2842   1.399       .  S
S2840      H2841   1.404       .  S
C2845      C2846   1.410       .  A
C2845      C2850   1.415       .  A
C2846      C2847   1.393       .  A
C2846      H2855   1.062       .  S
C2847      C2848   1.410       .  A
C2847      S2851   1.800       .  S
C2848      C2849   1.403       .  A
C2849      C2850   1.403       .  A
C2849      H2856   1.083       .  S
C2850      S2852   1.803       .  S
S2851      H2854   1.406       .  S
S2852      H2853   1.407       .  S
C2857      C2858   1.394       .  A
C2857      C2862   1.412       .  A
C2858      C2859   1.380       .  A
C2858      H2867   1.079       .  S
C2859      C2860   1.436       .  A
C2859      S2863   1.816       .  S
C2860      C2861   1.416       .  A
C2861      C2862   1.403       .  A
C2861      H2868   1.074       .  S
C2862      S2864   1.805       .  S
S2863      H2866   1.408       .  S
S2864      H2865   1.399       .  S
C2869      C2870   1.395       .  A
C2869      C2874   1.420       .  A
C2870      C2871   1.404       .  A
C2870      H2879   1.084       .  S
C2871      C2872   1.431       .  A
C2871      S2875   1.787       .  S
C2872      C2873   1.413       .  A
C2873      C2874   1.402       .  A
C2873      H2880   1.083       .  S
C2874      S2876   1.801       .  S
S2875      H2878   1.408       .  S
S2876      H2877   1.394       .  S
C2881      C2882   1.404       .  A
C2881      C2886   1.418       .  A
C2882      C2883   1.388       .  A
C2882      H2891   1.080       .  S
C2883      C2884   1.413       .  A
C2883      S2887   1.795       .  S
C2884      C2885   1.405       .  A
C2885      C2886   1.404       .  A
C2885      H2892   1.083       .  S
C2886      S2888   1.798       .  S
S2887      H2890   1.405       .  S
S2888      H2889   1.404       .  S
C2893      C2894   1.388       .  A
C2893      C2898   1.424       .  A
C2894      C2895   1.379       .  A
C2894      H2903   1.076       .  S
C2895      C2896   1.408       .  A
C2895      S2899   1.806       .  S
C2896      C2897   1.413       .  A
C2897      C2898   1.417       .  A
C2897      H2904   1.081       .  S
C2898      S2900   1.803       .  S
S2899      H2902   1.408       .  S
S2900      H2901   1.405       .  S
C2905      C2906   1.401       .  A
C2905      C2910   1.404       .  A
C2906      C2907   1.411       .  A
C2906      H2915   1.084       .  S
C2907      C2908   1.437       .  A
C2907      S2911   1.787       .  S
C2908      C2909   1.415       .  A
C2909      C2910   1.379       .  A
C2909      H2916   1.079       .  S
C2910      S2912   1.790       .  S
S2911      H2914   1.407       .  S
S2912      H2913   1.404       .  S
C2917      C2918   1.405       .  A
C2917      C2922   1.419       .  A
C2918      C2919   1.401       .  A
C2918      H2927   1.070       .  S
C2919      C2920   1.414       .  A
C2919      S2923   1.798       .  S
C2920      C2921   1.409       .  A
C2921      C2922   1.400       .  A
C2921      H2928   1.080       .  S
C2922      S2924   1.803       .  S
S2923      H2926   1.407       .  S
S2924      H2925   1.397       .  S
C2929      C2930   1.396       .  A
C2929      C2934   1.417       .  A
C2930      C2931   1.392       .  A
C2930      H2939   1.079       .  S
C2931      C2932   1.423       .  A
C2931      S2935   1.808       .  S
C2932      C2933   1.408       .  A
C2933      C2934   1.401       .  A
C2933      H2940   1.084       .  S
C2934      S2936   1.801       .  S
S2935      H2938   1.406       .  S
S2936      H2937   1.391       .  S
C2941      C2942   1.397       .  A
C2941      C2946   1.409       .  A
C2942      C2943   1.387       .  A
C2942      H2951   1.081       .  S
C2943      C2944   1.422       .  A
C2943      S2947   1.802       .  S
C2944      C2945   1.410       .  A
C2945      C2946   1.402       .  A
C2945      H2952   1.083       .  S
C2946      S2948   1.801       .  S
S2947      H2950   1.408       .  S
S2948      H2949   1.407       .  S
C2953      C2954   1.415       .  A
C2953      C2958   1.410       .  A
C2954      C2955   1.412       .  A
C2954      H2963   1.080       .  S
C2955      C2956   1.417       .  A
C2955      S2959   1.800       .  S
C2956      C2957   1.392       .  A
C2957      C2958   1.383       .  A
C2957      H2964   1.079       .  S
C2958      S2960   1.797       .  S
S2959      H2962   1.406       .  S
S2960      H2961   1.405       .  S
C2965      C2966   1.396       .  A
C2965      C2970   1.423       .  A
C2966      C2967   1.383       .  A
C2966      H2975   1.085       .  S
C2967      C2968   1.425       .  A
C2967      S2971   1.808       .  S
C2968      C2969   1.414       .  A
C2969      C2970   1.413       .  A
C2969      H2976   1.075       .  S
C2970      S2972   1.807       .  S
S2971      H2974   1.406       .  S
S2972      H2973   1.401       .  S
C2977      C2978   1.407       .  A
C2977      C2982   1.428       .  A
C2978      C2979   1.372       .  A
C2978      H2987   1.079       .  S
C2979      C2980   1.406       .  A
C2979      S2983   1.795       .  S
C2980      C2981   1.418       .  A
C2981      C2982   1.423       .  A
C2981      H2988   1.082       .  S
C2982      S2984   1.799       .  S
S2983      H2986   1.407       .  S
S2984      H2985   1.406       .  S
