geometry optimzed in LAMMPS
_audit_creation_date              2020-11-30 
_audit_creation_method            'lammps2cif' 
_symmetry_space_group_name_H-M    'P1' 
_symmetry_Int_Tables_number       1 
_symmetry_cell_setting            triclinic 
loop_ 
_symmetry_equiv_pos_as_xyz 
  x,y,z 
_cell_length_a                    42.29863552352634 
_cell_length_b                    42.29878097917523 
_cell_length_c                    42.29770404001992 
_cell_angle_alpha                 89.5790158214242 
_cell_angle_beta                  89.99985388334048 
_cell_angle_gamma                 89.99718866975299 
loop_ 
_atom_site_label 
_atom_site_type_symbol 
_atom_site_fract_x 
_atom_site_fract_y 
_atom_site_fract_z 
_atom_site_charge 
C1          C  0.61400078  0.76089762  0.84556182     0.03190
C2          C  0.63876717  0.76053033  0.82342408    -0.12960
C3          C  0.66969377  0.75174177  0.83234801     0.00690
C4          C  0.67522093  0.74305791  0.86426932    -0.11490
C5          C  0.65044471  0.74392766  0.88662797     0.03180
C6          C  0.62003772  0.75245191  0.87690473    -0.10910
H7          H  0.63361817  0.76617706  0.79893904     0.08770
H8          H  0.69895996  0.73744640  0.87211020     0.06300
H9          H  0.60103037  0.75320556  0.89410325     0.06150
C10         C  0.69582434  0.75227467  0.80827337     0.03190
C11         C  0.69643821  0.77572274  0.78433133    -0.12960
C12         C  0.71972600  0.77574193  0.76052664     0.00690
C13         C  0.74314426  0.75195722  0.76125652    -0.11490
C14         C  0.74323991  0.72822364  0.78480519     0.03180
C15         C  0.71951471  0.72883719  0.80832301    -0.10910
H16         H  0.67839611  0.79386292  0.78393758     0.08770
H17         H  0.76119300  0.75162516  0.74312534     0.06300
H18         H  0.71920211  0.71072143  0.82653407     0.06150
C19         C  0.72747205  0.81334241  0.67837014     0.03190
C20         C  0.71871585  0.84455300  0.68442151    -0.12960
C21         C  0.71033613  0.85402524  0.71492804     0.00690
C22         C  0.71002820  0.83156918  0.73974756    -0.11490
C23         C  0.71898612  0.79983626  0.73425720     0.03180
C24         C  0.72761260  0.79114563  0.70329031    -0.10910
H25         H  0.71916783  0.86186319  0.66537138     0.08770
H26         H  0.70465200  0.83925242  0.76351932     0.06300
H27         H  0.73348956  0.76677913  0.69823976     0.06150
C28         C  0.82134277  0.68292023  0.77539458     0.03190
C29         C  0.79905624  0.70775076  0.77518287    -0.12960
C30         C  0.76728487  0.70209351  0.78412611     0.00690
C31         C  0.75848734  0.67101934  0.79265450    -0.11490
C32         C  0.78061762  0.64620313  0.79229737     0.03180
C33         C  0.81175423  0.65236955  0.78354266    -0.10910
H34         H  0.80686453  0.73158852  0.76983550     0.08770
H35         H  0.73411576  0.66582582  0.79859322     0.06300
H36         H  0.82895397  0.63333845  0.78384085     0.06150
O37         O  0.43494458  0.71730758  0.81952276    -0.88290
C38         C  0.52700780  0.71175495  0.79687637     0.87740
Mg39       Mg  0.39846387  0.71408401  0.78579756     1.58150
O40         O  0.50069771  0.78758611  0.81461440    -0.88020
O41         O  0.45031833  0.75156504  0.85512843    -0.75350
C42         C  0.44825135  0.80629487  0.66859116     0.92790
O43         O  0.46859891  0.67806026  0.76451741    -0.75160
O44         O  0.42881296  0.78380567  0.67345079    -0.82670
Mg45       Mg  0.47070122  0.68166175  0.81860280     1.57960
C46         C  0.52111283  0.86424231  0.76426299     0.92710
O47         O  0.47176107  0.68234846  0.87279548    -0.80930
H48         H  0.48018114  0.81709180  0.84511706    -0.06270
C49         C  0.50536098  0.76635151  0.72219540     0.87650
O50         O  0.39433690  0.76815426  0.78420340    -0.75440
O51         O  0.50486651  0.71773467  0.81504781    -0.88200
O52         O  0.53507149  0.84125034  0.77803926    -0.81010
C53         C  0.58141699  0.76819234  0.83564231     0.92830
C54         C  0.48579913  0.69601700  0.89561025     0.92680
Mg55       Mg  0.46385100  0.81984666  0.74564902     1.57950
O56         O  0.46284606  0.81978618  0.69117107    -0.80940
O57         O  0.46589952  0.82326992  0.79971389    -0.75180
O58         O  0.55860842  0.75420820  0.84965554    -0.81020
O59         O  0.43627584  0.64118206  0.81942195    -0.82730
O60         O  0.37559251  0.74734678  0.71520989    -0.81050
C61         C  0.48266254  0.80977978  0.82080650     0.87120
O62         O  0.42962462  0.78373628  0.74932529    -0.88190
O63         O  0.49957689  0.78407217  0.74465529    -0.88300
O64         O  0.48393228  0.75008966  0.70890225    -0.75350
Mg65       Mg  0.50434558  0.75329959  0.85073403     1.57970
O66         O  0.57695400  0.78717491  0.81262470    -0.82730
H67         H  0.40478536  0.73760894  0.84960164    -0.06450
O68         O  0.43374545  0.71367922  0.74952850    -0.88000
H69         H  0.45435041  0.68416151  0.71908391    -0.06280
H70         H  0.39994772  0.81381624  0.77031598    -0.06450
C71         C  0.45184373  0.69151448  0.74337953     0.87100
C72         C  0.42902052  0.73509681  0.84189108     0.87680
C73         C  0.40750460  0.78957273  0.76757047     0.87730
H74         H  0.52956132  0.76376592  0.71440145    -0.06430
O75         O  0.54017615  0.73304079  0.78008334    -0.75460
Mg76       Mg  0.42989706  0.74840831  0.71359089     1.58000
H77         H  0.53452403  0.68748190  0.79428226    -0.06450
C78         C  0.41335531  0.63688295  0.80049952     0.92720
O79         O  0.35752600  0.71382062  0.75190714    -0.82690
C80         C  0.35289394  0.73314232  0.72921668     0.92780
O81         O  0.50505941  0.71868555  0.89120844    -0.82670
Mg82       Mg  0.53607856  0.78707856  0.77852191     1.58180
O83         O  0.39940851  0.65980301  0.78656685    -0.81010
O84         O  0.49835786  0.86011013  0.74511058    -0.82700
C85         C  0.45751290  0.10384011  0.84790594     0.03190
C86         C  0.45730986  0.08020686  0.82462261    -0.12960
C87         C  0.46752511  0.04923377  0.83151359     0.00690
C88         C  0.47781553  0.04228693  0.86243885    -0.11490
C89         C  0.47783512  0.06556295  0.88606996     0.03180
C90         C  0.46772626  0.09630631  0.87859795    -0.10910
H91         H  0.45047385  0.08639610  0.80068487     0.08770
H92         H  0.48456279  0.01831397  0.86858776     0.06300
H93         H  0.46780088  0.11435413  0.89665492     0.06150
C94         C  0.49164498  0.97733994  0.78263246     0.03190
C95         C  0.46740854  0.97748557  0.75970379    -0.12960
C96         C  0.44322859  0.00047146  0.75959879     0.00690
C97         C  0.44338328  0.02351522  0.78342273    -0.11490
C98         C  0.46748007  0.02426814  0.80654312     0.03180
C99         C  0.49155486  0.00111873  0.80571824    -0.10910
H100        H  0.46738380  0.95948693  0.74168376     0.08770
H101        H  0.42480303  0.04109544  0.78379501     0.06300
H102        H  0.51019245  0.00145285  0.82324026     0.06150
C103        C  0.40438595  0.99058279  0.67874417     0.03190
C104        C  0.42689820  0.99149707  0.70310182    -0.12960
C105        C  0.41855049  0.00063172  0.73399038     0.00690
C106        C  0.38671447  0.00922404  0.73988778    -0.11490
C107        C  0.36396984  0.00809230  0.71543954     0.03180
C108        C  0.37321330  0.99912563  0.68504834    -0.10910
H109        H  0.45128115  0.98601693  0.69757599     0.08770
H110        H  0.37924890  0.01504032  0.76363463     0.06300
H111        H  0.35577714  0.99808251  0.66627615     0.06150
C112        C  0.57107661  0.93330844  0.78923761     0.03190
C113        C  0.56179915  0.90296890  0.78032649    -0.12960
C114        C  0.53056907  0.89666232  0.77215615     0.00690
C115        C  0.50798227  0.92091227  0.77346899    -0.11490
C116        C  0.51636531  0.95178113  0.78259764     0.03180
C117        C  0.54830044  0.95771752  0.79081547    -0.10910
H118        H  0.57926161  0.88423559  0.77900427     0.08770
H119        H  0.48355200  0.91533118  0.76825351     0.06300
H120        H  0.55579065  0.98145348  0.79664096     0.06150
C121        C  0.47538619  0.35442242  0.09968409     0.03190
C122        C  0.46652854  0.34506657  0.13012034    -0.12960
C123        C  0.45776669  0.31396886  0.13645742     0.00690
C124        C  0.45839177  0.29159185  0.11214972    -0.11490
C125        C  0.46749422  0.30014102  0.08121032     0.03180
C126        C  0.47627941  0.33192497  0.07522140    -0.10910
H127        H  0.46567109  0.36238379  0.14889332     0.08770
H128        H  0.45271161  0.26721017  0.11772025     0.06300
H129        H  0.48202940  0.33956210  0.05140629     0.06150
C130        C  0.46720294  0.27579172  0.05560955     0.03190
C131        C  0.49047601  0.27577771  0.03184461    -0.12960
C132        C  0.49117334  0.25207351  0.00857867     0.00690
C133        C  0.46780007  0.22831316  0.00922899    -0.11490
C134        C  0.44397455  0.22786253  0.03246553     0.03180
C135        C  0.44401329  0.25179145  0.05547248    -0.10910
H136        H  0.50825848  0.29416847  0.03164002     0.08770
H137        H  0.46816577  0.21004560  0.99149191     0.06300
H138        H  0.42596512  0.25163313  0.07358069     0.06150
C139        C  0.57122275  0.26138992  0.96741297     0.03190
C140        C  0.56393825  0.25095119  0.93681590    -0.12960
C141        C  0.53318169  0.24096512  0.92941188     0.00690
C142        C  0.50967290  0.24148829  0.95291510    -0.11490
C143        C  0.51637634  0.25188969  0.98370680     0.03180
C144        C  0.54734350  0.26183796  0.99060436    -0.10910
H145        H  0.58216207  0.25058095  0.91880619     0.08770
H146        H  0.48570312  0.23500187  0.94672240     0.06300
H147        H  0.55331612  0.26868237  0.01449065     0.06150
C148        C  0.40291688  0.14763950  0.02286371     0.03190
C149        C  0.42616365  0.17150962  0.02278631    -0.12960
C150        C  0.41914303  0.20244807  0.03273374     0.00690
C151        C  0.38813560  0.20897833  0.04286228    -0.11490
C152        C  0.36462061  0.18541043  0.04311195     0.03180
C153        C  0.37217841  0.15479971  0.03304531    -0.10910
H154        H  0.45013279  0.16551585  0.01613945     0.08770
H155        H  0.38177749  0.23286603  0.04933548     0.06300
H156        H  0.35416125  0.13657638  0.03314221     0.06150
O157        O  0.16658080  0.97498297  0.77080277    -0.88290
C158        C  0.21408303  0.98344485  0.85280906     0.87740
Mg159      Mg  0.18684394  0.95123158  0.73187834     1.58150
O160        O  0.20650500  0.05285591  0.80895127    -0.88020
O161        O  0.14594383  0.02080218  0.78371508    -0.75350
C162        C  0.32979503  0.01114464  0.72176700     0.92790
O163        O  0.21709211  0.92871505  0.80229234    -0.75160
O164        O  0.31156374  0.99116693  0.70891061    -0.82670
Mg165      Mg  0.16820789  0.95017772  0.81397068     1.57960
C166        C  0.27845150  0.11266073  0.79259789     0.92710
O167        O  0.11736634  0.96912533  0.82441686    -0.80930
H168        H  0.17959461  0.08508985  0.78687153    -0.06270
C169        C  0.28820337  0.00464123  0.79976112     0.87650
O170        O  0.19838397  0.00023427  0.71011950    -0.75440
O171        O  0.19196228  0.98914283  0.83440196    -0.88200
O172        O  0.26064695  0.10161657  0.81434900    -0.81010
C173        C  0.20789941  0.06061601  0.89477202     0.92830
C174        C  0.10635940  0.99093977  0.84186757     0.92680
Mg175      Mg  0.26852259  0.05209169  0.75132609     1.57950
O176        O  0.31917429  0.03255216  0.74001023    -0.80940
O177        O  0.21988670  0.07398978  0.76323989    -0.75180
O178        O  0.18610124  0.04313336  0.88355562    -0.81020
O179        O  0.14614202  0.90720971  0.79352920    -0.82730
O180        O  0.24914337  0.95995573  0.68135637    -0.81050
C181        C  0.20111269  0.07129573  0.78667475     0.87120
O182        O  0.24415367  0.01340609  0.73081629    -0.88190
O183        O  0.26994421  0.02700876  0.79449932    -0.88300
O184        O  0.29087344  0.98156262  0.78071691    -0.75350
Mg185      Mg  0.16733318  0.03234260  0.83258573     1.57970
O186        O  0.22887088  0.07302790  0.87708801    -0.82730
H187        H  0.13485958  0.99727261  0.74349172    -0.06450
O188        O  0.23008187  0.94959290  0.75633658    -0.88000
H189        H  0.25740433  0.91782069  0.77859195    -0.06280
H190        H  0.22181823  0.04081098  0.69912692    -0.06450
C191        C  0.23574392  0.93139123  0.77875071     0.87100
C192        C  0.14845944  0.99735707  0.76513438     0.87680
C193        C  0.22175708  0.01905919  0.71272424     0.87730
H194        H  0.30193602  0.00449010  0.82132184    -0.06430
O195        O  0.23761562  0.00203853  0.85549479    -0.75460
Mg196      Mg  0.26882792  0.97028014  0.73195558     1.58000
H197        H  0.21368592  0.96178051  0.86653839    -0.06450
C198        C  0.15862224  0.88936529  0.77300874     0.92720
O199        O  0.20721497  0.92919502  0.68892046    -0.82690
C200        C  0.22740145  0.94208628  0.67075235     0.92780
O201        O  0.12415515  0.01154535  0.85438051    -0.82670
Mg202      Mg  0.24960191  0.05086161  0.83373376     1.58180
O203        O  0.17630182  0.90030142  0.75113365    -0.81010
O204        O  0.29129700  0.09482988  0.77225083    -0.82700
C205        C  0.97765235  0.39588290  0.21758423     0.03190
C206        C  0.97855912  0.41967773  0.24071910    -0.12960
C207        C  0.96888165  0.45078572  0.23369088     0.00690
C208        C  0.95843554  0.45766330  0.20280741    -0.11490
C209        C  0.95761452  0.43418055  0.17943656     0.03180
C210        C  0.96724253  0.40335305  0.18697998    -0.10910
H211        H  0.98551029  0.41354213  0.26463478     0.08770
H212        H  0.95211748  0.48170101  0.19645696     0.06300
H213        H  0.96662363  0.38519407  0.16904272     0.06150
C214        C  0.03123552  0.51020354  0.38657011     0.03190
C215        C  0.06247164  0.50165408  0.38049451    -0.12960
C216        C  0.07183405  0.49233864  0.35024515     0.00690
C217        C  0.04923530  0.49091203  0.32574096    -0.11490
C218        C  0.01742343  0.49954293  0.33141090     0.03180
C219        C  0.00885205  0.50893147  0.36214823    -0.10910
H220        H  0.07983706  0.50291904  0.39931564     0.08770
H221        H  0.05681314  0.48489984  0.30207727     0.06300
H222        H  0.98441957  0.51437965  0.36749207     0.06150
C223        C  0.94514229  0.52305308  0.28213669     0.03190
C224        C  0.94548396  0.49932094  0.25898035    -0.12960
C225        C  0.96923099  0.47590634  0.25850816     0.00690
C226        C  0.99299747  0.47647642  0.28193354    -0.11490
C227        C  0.99307574  0.49970355  0.30561308     0.03180
C228        C  0.96913347  0.52291487  0.30520914    -0.10910
H229        H  0.92712474  0.49904730  0.24119154     0.08770
H230        H  0.01135379  0.45865520  0.28191245     0.06300
H231        H  0.96904856  0.54092272  0.32321163     0.06150
C232        C  0.90284501  0.60221143  0.29336147     0.03190
C233        C  0.92642607  0.57877050  0.29268242    -0.12960
C234        C  0.91975674  0.54789113  0.28243409     0.00690
C235        C  0.88867677  0.54096243  0.27269682    -0.11490
C236        C  0.86476018  0.56417032  0.27321198     0.03180
C237        C  0.87206668  0.59476808  0.28353496    -0.10910
H238        H  0.95041052  0.58511360  0.29894760     0.08770
H239        H  0.88262923  0.51708034  0.26592744     0.06300
H240        H  0.85383295  0.61276959  0.28391995     0.06150
O241        O  0.75482309  0.46680357  0.74907091    -0.88290
C242        C  0.73258205  0.55904315  0.74256161     0.87740
Mg243      Mg  0.72048844  0.43051840  0.74596184     1.58150
O244        O  0.75021076  0.53276125  0.81887093    -0.88020
O245        O  0.79069943  0.48231707  0.78313672    -0.75350
C246        C  0.60346343  0.48164511  0.83585966     0.92790
O247        O  0.70017231  0.50072225  0.70921294    -0.75160
O248        O  0.60773487  0.46227885  0.81339872    -0.82670
Mg249      Mg  0.75432660  0.50244453  0.71292363     1.57960
C250        C  0.69924483  0.55408026  0.89519565     0.92710
O251        O  0.80907102  0.50336047  0.71334132    -0.80930
H252        H  0.78040565  0.51182103  0.84878306    -0.06270
C253        C  0.65778239  0.53786365  0.79659275     0.87650
O254        O  0.71871776  0.42644406  0.80002952    -0.75440
O255        O  0.75084500  0.53691701  0.74865131    -0.88200
O256        O  0.71324811  0.56779401  0.87220333    -0.81010
C257        C  0.77095949  0.61348957  0.79935461     0.92830
C258        C  0.83174286  0.51783279  0.72695186     0.92680
Mg259      Mg  0.68070153  0.49632564  0.85071376     1.57950
O260        O  0.62639191  0.49557539  0.84956585    -0.80940
O261        O  0.73482303  0.49803952  0.85461227    -0.75180
O262        O  0.78501473  0.59085540  0.78530870    -0.81020
O263        O  0.75461233  0.46763758  0.67296996    -0.82730
O264        O  0.64885423  0.40764138  0.77852328    -0.81050
C265        C  0.75614235  0.51458301  0.84120909     0.87120
O266        O  0.68392155  0.46187129  0.81495470    -0.88190
O267        O  0.68009716  0.53191291  0.81465548    -0.88300
O268        O  0.64440018  0.51654738  0.78030087    -0.75350
Mg269      Mg  0.78639431  0.53641118  0.78445892     1.57970
O270        O  0.74812080  0.60878950  0.81831009    -0.82730
H271        H  0.78490235  0.43667943  0.76987428    -0.06450
O272        O  0.68459389  0.46599567  0.74488437    -0.88000
H273        H  0.65452666  0.48715217  0.71499977    -0.06280
H274        H  0.70464609  0.43209114  0.84548900    -0.06450
C275        C  0.67877213  0.48425402  0.72258053     0.87100
C276        C  0.77724731  0.46092212  0.76700907     0.87680
C277        C  0.70203314  0.43966255  0.82115466     0.87730
H278        H  0.65021950  0.56213196  0.79370556    -0.06430
O279        O  0.71591504  0.57217410  0.76376968    -0.75460
Mg280      Mg  0.64829341  0.46241433  0.77900766     1.58000
H281        H  0.72983850  0.56663947  0.71824890    -0.06450
C282        C  0.73535792  0.44494189  0.66884948     0.92720
O283        O  0.68583849  0.39007177  0.74547535    -0.82690
C284        C  0.66294450  0.38509277  0.76436520     0.92780
O285        O  0.82692243  0.53708975  0.74946460    -0.82670
Mg286      Mg  0.71408657  0.56821723  0.81788352     1.58180
O287        O  0.72128688  0.43127549  0.69181565    -0.81010
O288        O  0.68032721  0.53109863  0.89100283    -0.82700
C289        C  0.78223749  0.49088633  0.13570464     0.03190
C290        C  0.75862985  0.49155276  0.11225048    -0.12960
C291        C  0.76531093  0.50169894  0.08119848     0.00690
C292        C  0.79643753  0.51116206  0.07401084    -0.11490
C293        C  0.82042906  0.51034551  0.09715006     0.03180
C294        C  0.81309454  0.50027384  0.12798021    -0.10910
H295        H  0.73460854  0.48536897  0.11865552     0.08770
H296        H  0.80242058  0.51791350  0.04999501     0.06300
H297        H  0.83137674  0.49971783  0.14593545     0.06150
C298        C  0.71557391  0.52608253  0.00931025     0.03190
C299        C  0.73918863  0.52578257  0.03279818    -0.12960
C300        C  0.73987895  0.50212524  0.05644582     0.00690
C301        C  0.71626960  0.47858915  0.05624991    -0.11490
C302        C  0.69223932  0.47830963  0.03314392     0.03180
C303        C  0.69203388  0.50239040  0.01002192    -0.10910
H304        H  0.75722692  0.54392521  0.03249776     0.08770
H305        H  0.71670877  0.46019346  0.07415213     0.06300
H306        H  0.67368478  0.50240128  0.99219012     0.06150
C307        C  0.65452865  0.39664619  0.04202470     0.03190
C308        C  0.67681617  0.42126864  0.04155443    -0.12960
C309        C  0.66808468  0.45228499  0.03274470     0.00690
C310        C  0.63622773  0.45800951  0.02418525    -0.11490
C311        C  0.61382874  0.43329385  0.02505499     0.03180
C312        C  0.62333513  0.40282215  0.03357082    -0.10910
H313        H  0.70123548  0.41592502  0.04714598     0.08770
H314        H  0.62845024  0.48181846  0.01866622     0.06300
H315        H  0.60605079  0.38387972  0.03440908     0.06150
C316        C  0.72418357  0.60463272  0.96420583     0.03190
C317        C  0.71537990  0.59527059  0.93375734    -0.12960
C318        C  0.70666350  0.56403129  0.92771523     0.00690
C319        C  0.70703964  0.54175527  0.95247600    -0.11490
C320        C  0.71600874  0.55034670  0.98331575     0.03180
C321        C  0.72492546  0.58205303  0.98889586    -0.10910
H322        H  0.71460951  0.61264282  0.91477600     0.08770
H323        H  0.70129502  0.51736490  0.94737716     0.06300
H324        H  0.73060357  0.58959670  0.01264396     0.06150
C325        C  0.32034510  0.24003136  0.21815571     0.03190
C326        C  0.29667474  0.24008924  0.24154976    -0.12960
C327        C  0.26574275  0.25031173  0.23471774     0.00690
C328        C  0.25885179  0.26041860  0.20367893    -0.11490
C329        C  0.28215881  0.26018113  0.17987330     0.03180
C330        C  0.31289219  0.25004211  0.18733612    -0.10910
H331        H  0.30280833  0.23342336  0.26555426     0.08770
H332        H  0.23491121  0.26722461  0.19760717     0.06300
H333        H  0.33098263  0.24993558  0.16918615     0.06150
C334        C  0.21721875  0.22630486  0.30748709     0.03190
C335        C  0.24012270  0.22640436  0.28332059    -0.12960
C336        C  0.24082367  0.25039735  0.25994901     0.00690
C337        C  0.21764950  0.27438846  0.26078070    -0.11490
C338        C  0.19407787  0.27463950  0.28428948     0.03180
C339        C  0.19444995  0.25064492  0.30772403    -0.10910
H340        H  0.25757270  0.20770246  0.28278704     0.08770
H341        H  0.21777862  0.29283863  0.24291186     0.06300
H342        H  0.17669372  0.25071337  0.32614947     0.06150
C343        C  0.14964824  0.35355929  0.27555538     0.03190
C344        C  0.17423898  0.33096904  0.27499130    -0.12960
C345        C  0.16835333  0.29913798  0.28385430     0.00690
C346        C  0.13734595  0.29060036  0.29265562    -0.11490
C347        C  0.11278634  0.31295330  0.29273179     0.03180
C348        C  0.11910937  0.34415163  0.28400685    -0.10910
H349        H  0.19807276  0.33855522  0.26944399     0.08770
H350        H  0.13194610  0.26620611  0.29846640     0.06300
H351        H  0.10023738  0.36150902  0.28458146     0.06150
C352        C  0.21006234  0.18413814  0.38762357     0.03190
C353        C  0.20975262  0.20800173  0.36425025    -0.12960
C354        C  0.21703801  0.20079897  0.33241482     0.00690
C355        C  0.22420502  0.16902317  0.32470892    -0.11490
C356        C  0.22367042  0.14525671  0.34822125     0.03180
C357        C  0.21684057  0.15318146  0.37928766    -0.10910
H358        H  0.20540125  0.23222604  0.37114509     0.08770
H359        H  0.22867521  0.16251055  0.30039964     0.06300
H360        H  0.21679577  0.13484016  0.39739690     0.06150
O361        O  0.22870021  0.72351287  0.48156959    -0.88290
C362        C  0.14676723  0.73362949  0.52908049     0.87740
Mg363      Mg  0.26763645  0.69905877  0.50219924     1.58150
O364        O  0.19156362  0.80200710  0.51986496    -0.88020
O365        O  0.21562078  0.76891311  0.45957886    -0.75350
C366        C  0.27756923  0.75997011  0.64450074     0.92790
O367        O  0.19692336  0.67798920  0.53265792    -0.75160
O368        O  0.29025105  0.73930634  0.62691311    -0.82670
Mg369      Mg  0.18522229  0.69933221  0.48353342     1.57960
C370        C  0.20881418  0.86205641  0.59083090     0.92710
O371        O  0.17428974  0.71813775  0.43239997    -0.80930
H372        H  0.21439527  0.83310982  0.49221562    -0.06270
C373        C  0.20015631  0.75447504  0.60246022     0.87650
O374        O  0.29012066  0.74756248  0.51316863    -0.75440
O375        O  0.16511900  0.73873281  0.50677288    -0.88200
O376        O  0.18695201  0.85144779  0.57314474    -0.81010
C377        C  0.10604152  0.81169720  0.52230401     0.92830
C378        C  0.15652863  0.73982258  0.42112685     0.92680
Mg379      Mg  0.24932520  0.80059100  0.58197074     1.57950
O380        O  0.25993060  0.78170251  0.63313970    -0.80940
O381        O  0.23777824  0.82194419  0.53277436    -0.75180
O382        O  0.11654400  0.79351149  0.50078765    -0.81020
O383        O  0.20542767  0.65595520  0.46200009    -0.82730
O384        O  0.31798940  0.70647107  0.56484796    -0.81050
C385        C  0.21427279  0.81966152  0.51405869     0.87120
O386        O  0.26947781  0.76123812  0.55872871    -0.88190
O387        O  0.20584551  0.77645952  0.58375727    -0.88300
O388        O  0.21879510  0.73098217  0.60566792    -0.75350
Mg389      Mg  0.16702899  0.78157603  0.48130304     1.57970
O390        O  0.12434073  0.82437700  0.54233139    -0.82730
H391        H  0.25583859  0.74487359  0.44903805    -0.06450
O392        O  0.24313025  0.69797660  0.54548466    -0.88000
H393        H  0.22044269  0.66675326  0.57311082    -0.06280
H394        H  0.30175680  0.78783125  0.53636695    -0.06450
C395        C  0.22048092  0.68025422  0.55129942     0.87100
C396        C  0.23429234  0.74544275  0.46277331     0.87680
C397        C  0.28779286  0.76642201  0.53640416     0.87730
H398        H  0.17854663  0.75501440  0.61609772    -0.06430
O399        O  0.14440268  0.75258795  0.55223320    -0.75460
Mg400      Mg  0.26747295  0.71836913  0.58415021     1.58000
H401        H  0.13277490  0.71223872  0.52915704    -0.06450
C402        C  0.22595760  0.63795520  0.47460943     0.92720
O403        O  0.31047010  0.67595081  0.52297576    -0.82690
C404        C  0.32862411  0.68846184  0.54325033     0.92780
O405        O  0.14401141  0.76056090  0.43873383    -0.82670
Mg406      Mg  0.16703597  0.80107388  0.56313345     1.58180
O407        O  0.24788633  0.64866887  0.49214644    -0.81010
O408        O  0.22915244  0.84393447  0.60356052    -0.82700
C409        C  0.15144197  0.85539306  0.77531003     0.03190
C410        C  0.17490877  0.83171163  0.77477779    -0.12960
C411        C  0.16716868  0.79988097  0.78222377     0.00690
C412        C  0.13533785  0.79249772  0.78970627    -0.11490
C413        C  0.11196465  0.81622410  0.78921494     0.03180
C414        C  0.12037757  0.84724873  0.78227172    -0.10910
H415        H  0.19922167  0.83829626  0.77010394     0.08770
H416        H  0.12846874  0.76822211  0.79431060     0.06300
H417        H  0.10230725  0.86548859  0.78226803     0.06150
C418        C  0.21535412  0.72650161  0.80591712     0.03190
C419        C  0.19234085  0.75067787  0.80576774    -0.12960
C420        C  0.19204123  0.77447771  0.78211148     0.00690
C421        C  0.21554649  0.77390613  0.75837279    -0.11490
C422        C  0.23894480  0.75014315  0.75792522     0.03180
C423        C  0.23830036  0.72649958  0.78172039    -0.10910
H424        H  0.17453104  0.75097607  0.82415250     0.08770
H425        H  0.21572061  0.79214173  0.74026487     0.06300
H426        H  0.25602154  0.70804155  0.78159625     0.06150
C427        C  0.32024836  0.74056434  0.71966226     0.03190
C428        C  0.31399326  0.74887390  0.68836750    -0.12960
C429        C  0.28357627  0.75750432  0.67880753     0.00690
C430        C  0.25897674  0.75877692  0.70142628    -0.11490
C431        C  0.26476275  0.75031207  0.73341718     0.03180
C432        C  0.29570978  0.74124199  0.74204416    -0.10910
H433        H  0.33286692  0.74785325  0.67103274     0.08770
H434        H  0.23520628  0.76453142  0.69379140     0.06300
H435        H  0.30107174  0.73565499  0.76649877     0.06150
C436        C  0.22380789  0.64613526  0.84777899     0.03190
C437        C  0.21737397  0.65430184  0.87883032    -0.12960
C438        C  0.21009060  0.68518245  0.88696300     0.00690
C439        C  0.20879432  0.70879717  0.86325608    -0.11490
C440        C  0.21571459  0.70134540  0.83133126     0.03180
C441        C  0.22340817  0.66959151  0.82395812    -0.10910
H442        H  0.21799506  0.63614845  0.89712250     0.08770
H443        H  0.20398936  0.73300494  0.86990004     0.06300
H444        H  0.22760760  0.66282265  0.79967219     0.06150
O445        O  0.68354288  0.78678445  0.49838813    -0.88290
C446        C  0.67800066  0.76423666  0.59101572     0.87740
Mg447      Mg  0.68027904  0.75206704  0.46239258     1.58150
O448        O  0.75400625  0.78242401  0.56480151    -0.88020
O449        O  0.71768780  0.82257303  0.51407089    -0.75350
C450        C  0.77254465  0.63552967  0.51424665     0.92790
O451        O  0.64423092  0.73201287  0.53260686    -0.75160
O452        O  0.74979442  0.64012151  0.49506110    -0.82670
Mg453      Mg  0.64782404  0.78625473  0.53412962     1.57960
C454        C  0.83109584  0.73236263  0.58583031     0.92710
O455        O  0.64825933  0.84117126  0.53506081    -0.80930
H456        H  0.78342344  0.81281122  0.54344313    -0.06270
C457        C  0.73267815  0.68981997  0.57051705     0.87650
O458        O  0.73440975  0.75067177  0.45855803    -0.75440
O459        O  0.68379256  0.78265881  0.56883897    -0.88200
O460        O  0.80807237  0.74604033  0.59964855    -0.81010
C461        C  0.73462939  0.80353087  0.64569838     0.92830
C462        C  0.66193504  0.86365949  0.54974334     0.92680
Mg463      Mg  0.78634189  0.71304319  0.52864360     1.57950
O464        O  0.78630226  0.65831717  0.52832798    -0.80940
O465        O  0.78949524  0.76725262  0.53005443    -0.75180
O466        O  0.72047864  0.81737873  0.62282091    -0.81020
O467        O  0.60764223  0.78672810  0.49906140    -0.82730
O468        O  0.71383195  0.68043582  0.44050387    -0.81050
C469        C  0.77609061  0.78848857  0.54646839     0.87120
O470        O  0.75015409  0.71607408  0.49425018    -0.88190
O471        O  0.75062639  0.71220293  0.56445457    -0.88300
O472        O  0.71631424  0.67638826  0.54926814    -0.75350
Mg473      Mg  0.71944378  0.81838235  0.56828661     1.57970
O474        O  0.75365902  0.78069385  0.64125368    -0.82730
H475        H  0.70449941  0.81689801  0.46833008    -0.06450
O476        O  0.67992023  0.71629028  0.49832100    -0.88000
H477        H  0.65012998  0.68627893  0.51969841    -0.06280
H478        H  0.78011991  0.73729706  0.46431610    -0.06450
C479        C  0.65767445  0.71052218  0.51654679     0.87100
C480        C  0.70157822  0.80917266  0.49258203     0.87680
C481        C  0.75589154  0.73431188  0.47191809     0.87730
H482        H  0.72994323  0.68224054  0.59483494    -0.06430
O483        O  0.69945592  0.74776793  0.60430847    -0.75460
Mg484      Mg  0.71462481  0.68018855  0.49513219     1.58000
H485        H  0.65375575  0.76120405  0.59854685    -0.06450
C486        C  0.60285674  0.76731293  0.47670881     0.92720
O487        O  0.68025942  0.71685975  0.42220085    -0.82690
C488        C  0.69946627  0.69411718  0.41767455     0.92780
O489        O  0.68450346  0.85859917  0.56901099    -0.82670
Mg490      Mg  0.75362818  0.74640920  0.60054373     1.58180
O491        O  0.62551438  0.75280219  0.46308245    -0.81010
O492        O  0.82690624  0.71327711  0.56311693    -0.82700
C493        C  0.82033635  0.18417430  0.27301391     0.03190
C494        C  0.81290332  0.15335393  0.28303637    -0.12960
C495        C  0.78230785  0.14605530  0.29370553     0.00690
C496        C  0.75916212  0.16996686  0.29436941    -0.11490
C497        C  0.76611319  0.20097988  0.28438283     0.03180
C498        C  0.79690416  0.20771903  0.27375949    -0.10910
H499        H  0.83088530  0.13510628  0.28252901     0.08770
H500        H  0.73526156  0.16399665  0.30139585     0.06300
H501        H  0.80315414  0.23173502  0.26726088     0.06150
C502        C  0.74127693  0.22617695  0.28461743     0.03190
C503        C  0.71792207  0.22683761  0.30840512    -0.12960
C504        C  0.69419021  0.25014625  0.30834461     0.00690
C505        C  0.69446448  0.27339303  0.28425557    -0.11490
C506        C  0.71756698  0.27343869  0.26028666     0.03180
C507        C  0.74074151  0.24958915  0.26074781    -0.10910
H508        H  0.71802210  0.20901676  0.32690156     0.08770
H509        H  0.67638939  0.29148218  0.28405988     0.06300
H510        H  0.75852730  0.24924681  0.24239029     0.06150
C511        C  0.72747496  0.31458153  0.17988661     0.03190
C512        C  0.72730102  0.29128177  0.20384761    -0.12960
C513        C  0.71749070  0.29832672  0.23482072     0.00690
C514        C  0.70774904  0.32939775  0.24136894    -0.11490
C515        C  0.70779339  0.35303487  0.21777082     0.03180
C516        C  0.71769248  0.34546164  0.18704313    -0.10910
H517        H  0.73365090  0.26724683  0.19791624     0.08770
H518        H  0.70136876  0.33568914  0.26530413     0.06300
H519        H  0.71778100  0.36355141  0.16875375     0.06150
C520        C  0.61315082  0.25966360  0.34646756     0.03190
C521        C  0.63756407  0.25880904  0.32405211    -0.12960
C522        C  0.66847630  0.24990984  0.33270828     0.00690
C523        C  0.67436184  0.24153406  0.36461226    -0.11490
C524        C  0.64982770  0.24274251  0.38717700     0.03180
C525        C  0.61939247  0.25140667  0.37775743    -0.10910
H526        H  0.63211990  0.26418601  0.29957009     0.08770
H527        H  0.69816017  0.23589917  0.37225337     0.06300
H528        H  0.60055663  0.25247409  0.39512953     0.06150
O529        O  0.50054678  0.28695288  0.31529917    -0.88290
C530        C  0.50622470  0.26519679  0.22315703     0.87740
Mg531      Mg  0.50370786  0.25211642  0.35130097     1.58150
O532        O  0.43016527  0.28294114  0.24918881    -0.88020
O533        O  0.46626086  0.32289118  0.29993428    -0.75350
C534        C  0.41271983  0.13625864  0.29989258     0.92790
O535        O  0.54016345  0.23242965  0.28125873    -0.75160
O536        O  0.43539923  0.14035549  0.31916302    -0.82670
Mg537      Mg  0.53641162  0.28659313  0.27958858     1.57960
C538        C  0.35324899  0.23231321  0.22715033     0.92710
O539        O  0.53634318  0.34126432  0.27878339    -0.80930
H540        H  0.40031079  0.31314853  0.26974697    -0.06270
C541        C  0.45203075  0.19063229  0.24354137     0.87650
O542        O  0.44962396  0.25050516  0.35528396    -0.75440
O543        O  0.50036364  0.28330549  0.24530263    -0.88200
O544        O  0.37598748  0.24675102  0.21346301    -0.81010
C545        C  0.44993653  0.30444770  0.16893793     0.92830
C546        C  0.52265971  0.36400459  0.26427685     0.92680
Mg547      Mg  0.39817422  0.21338524  0.28502154     1.57950
O548        O  0.39903408  0.15924464  0.28584077    -0.80940
O549        O  0.39421808  0.26747921  0.28341974    -0.75180
O550        O  0.46407606  0.31804311  0.19173186    -0.81020
O551        O  0.57644816  0.28675784  0.31418870    -0.82730
O552        O  0.47074864  0.18046371  0.37357570    -0.81050
C553        C  0.40778859  0.28887123  0.26708185     0.87120
O554        O  0.43424559  0.21636859  0.31954284    -0.88190
O555        O  0.43392414  0.21284244  0.24947373    -0.88300
O556        O  0.46851398  0.17715615  0.26486828    -0.75350
Mg557      Mg  0.46476322  0.31900270  0.24586740     1.57970
O558        O  0.43040326  0.28203091  0.17329716    -0.82730
H559        H  0.47997491  0.31670937  0.34552707    -0.06450
O560        O  0.50437701  0.21672623  0.31560459    -0.88000
H561        H  0.53422766  0.18669816  0.29478052    -0.06280
H562        H  0.40402196  0.23690092  0.34940096    -0.06450
C563        C  0.52670115  0.21094355  0.29758118     0.87100
C564        C  0.48263540  0.30929775  0.32126587     0.87680
C565        C  0.42829240  0.23421569  0.34186022     0.87730
H566        H  0.45481088  0.18327626  0.21927650    -0.06430
O567        O  0.48482372  0.24888641  0.20984105    -0.75460
Mg568      Mg  0.47004814  0.18057889  0.31897264     1.58000
H569        H  0.53048857  0.26229491  0.21567948    -0.06450
C570        C  0.58071149  0.26726927  0.33678738     0.92720
O571        O  0.50431426  0.21677645  0.39150518    -0.82690
C572        C  0.48514791  0.19403952  0.39624492     0.92780
O573        O  0.49989669  0.35931079  0.24517929    -0.82670
Mg574      Mg  0.43064416  0.24734801  0.21344006     1.58180
O575        O  0.55787471  0.25298119  0.35042133    -0.81010
O576        O  0.35792470  0.21304089  0.24992733    -0.82700
O577        O  0.75025957  0.21714998  0.99606346    -0.88290
C578        C  0.65765870  0.21188827  0.01674502     0.87740
Mg579      Mg  0.78606341  0.21327091  0.03087472     1.58150
O580        O  0.68482068  0.28767027  0.99915899    -0.88020
O581        O  0.73562124  0.25160536  0.95979648    -0.75350
C582        C  0.73524634  0.30544103  0.14706442     0.92790
O583        O  0.71535860  0.17800917  0.05060904    -0.75160
O584        O  0.75440999  0.28264933  0.14267939    -0.82670
Mg585      Mg  0.71422361  0.18167104  0.99634067     1.57960
C586        C  0.66410037  0.36407219  0.04957797     0.92710
O587        O  0.71409285  0.18220952  0.94188109    -0.80930
H588        H  0.70669460  0.31728610  0.96928611    -0.06270
C589        C  0.67862528  0.26568952  0.09219686     0.87650
O590        O  0.79066845  0.26732243  0.03234028    -0.75440
O591        O  0.68011994  0.21783433  0.99887107    -0.88200
O592        O  0.65034707  0.34135442  0.03543389    -0.81010
C593        C  0.60414564  0.26891573  0.97646388     0.92830
C594        C  0.70051244  0.19602808  0.91866057     0.92680
Mg595      Mg  0.72081530  0.31916125  0.06934740     1.57950
O596        O  0.72103026  0.31909529  0.12410981    -0.80940
O597        O  0.71964491  0.32273974  0.01510616    -0.75180
O598        O  0.62684603  0.25461139  0.96276632    -0.81020
O599        O  0.74825270  0.14101022  0.99644914    -0.82730
O600        O  0.80872949  0.24614179  0.10216876    -0.81050
C601        C  0.70336995  0.30968673  0.99352463     0.87120
O602        O  0.75506721  0.28299680  0.06663927    -0.88190
O603        O  0.68483889  0.28352115  0.06967293    -0.88300
O604        O  0.69982018  0.24944148  0.10614648    -0.75350
Mg605      Mg  0.68147228  0.25359128  0.96292027     1.57970
O606        O  0.60886012  0.28787072  0.99925560    -0.82730
H607        H  0.78104801  0.23769314  0.96648871    -0.06450
O608        O  0.75031520  0.21295273  0.06657711    -0.88000
H609        H  0.72825988  0.18346441  0.09645192    -0.06280
H610        H  0.78533787  0.31293607  0.04585382    -0.06450
C611        C  0.73164494  0.19103257  0.07221201     0.87100
C612        C  0.75665265  0.23510897  0.97368929     0.87680
C613        C  0.77749073  0.28874877  0.04865218     0.87730
H614        H  0.65427932  0.26306046  0.09954670    -0.06430
O615        O  0.64446068  0.23312709  0.03326185    -0.75460
Mg616      Mg  0.75400154  0.24742833  0.10262104     1.58000
H617        H  0.64987239  0.18766050  0.01933988    -0.06450
C618        C  0.77083823  0.13625058  0.01569203     0.92720
O619        O  0.82618927  0.21218632  0.06604637    -0.82690
C620        C  0.83121701  0.23145683  0.08847369     0.92780
O621        O  0.68156244  0.21903979  0.92254841    -0.82670
Mg622      Mg  0.64897242  0.28710243  0.03470719     1.58180
O623        O  0.78466356  0.15885157  0.02998155    -0.81010
O624        O  0.68657569  0.35956554  0.06901502    -0.82700
C625        C  0.07188875  0.81792357  0.52559711     0.03190
C626        C  0.06248995  0.84829680  0.53443243    -0.12960
C627        C  0.03137638  0.85437402  0.54347272     0.00690
C628        C  0.00912647  0.82975441  0.54329531    -0.11490
C629        C  0.01769427  0.79892065  0.53424789     0.03180
C630        C  0.04939272  0.79328057  0.52508311    -0.10910
H631        H  0.07977842  0.86722732  0.53499294     0.08770
H632        H  0.98478228  0.83499028  0.54922836     0.06300
H633        H  0.05699151  0.76955550  0.51933663     0.06150
C634        C  0.96943906  0.72621780  0.51053028     0.03190
C635        C  0.94579884  0.72655577  0.53403037    -0.12960
C636        C  0.94541086  0.74955154  0.55798528     0.00690
C637        C  0.96956118  0.77246143  0.55821583    -0.11490
C638        C  0.99339189  0.77306820  0.53475578     0.03180
C639        C  0.99313926  0.74965272  0.51122520    -0.10910
H640        H  0.92739229  0.70882285  0.53357110     0.08770
H641        H  0.96952077  0.79019717  0.57651595     0.06300
H642        H  0.01134365  0.74985115  0.49325103     0.06150
C643        C  0.90002982  0.75734747  0.63629789     0.03190
C644        C  0.86967196  0.74856209  0.62675473    -0.12960
C645        C  0.86362470  0.74015086  0.59554427     0.00690
C646        C  0.88832269  0.74095216  0.57331384    -0.11490
C647        C  0.91923927  0.74992520  0.58206601     0.03180
C648        C  0.92476731  0.75843569  0.61390633    -0.10910
H649        H  0.85073020  0.74750209  0.64402472     0.08770
H650        H  0.88309674  0.73544627  0.54890504     0.06300
H651        H  0.94848616  0.76405572  0.62170621     0.06150
C652        C  0.95740922  0.64738120  0.46837552     0.03190
C653        C  0.96721328  0.65493183  0.43762935    -0.12960
C654        C  0.97785647  0.68547463  0.43026536     0.00690
C655        C  0.97881817  0.70857713  0.45411778    -0.11490
C656        C  0.96899932  0.70152682  0.48521040     0.03180
C657        C  0.95834095  0.67067068  0.49193220    -0.10910
H658        H  0.96653182  0.63703436  0.41943227     0.08770
H659        H  0.98594319  0.73245223  0.44804081     0.06300
H660        H  0.95193939  0.66424954  0.51592759     0.06150
O661        O  0.93022172  0.96779093  0.56600334    -0.88290
C662        C  0.95261967  0.06000776  0.57043130     0.87740
Mg663      Mg  0.96441481  0.93174844  0.56959528     1.58150
O664        O  0.93488004  0.03386715  0.49459084    -0.88020
O665        O  0.89489430  0.98294745  0.53093409    -0.75350
C666        C  0.08105968  0.98260116  0.47851204     0.92790
O667        O  0.98525626  0.00208655  0.60519795    -0.75160
O668        O  0.07654561  0.96336941  0.50128194    -0.82670
Mg669      Mg  0.93123654  0.00385190  0.60122237     1.57960
C670        C  0.98580012  0.05525433  0.41780735     0.92710
O671        O  0.87707486  0.00464159  0.60065538    -0.80930
H672        H  0.90455041  0.01351225  0.46471573    -0.06270
C673        C  0.02700479  0.03942581  0.51680362     0.87650
O674        O  0.96596846  0.92772658  0.51547293    -0.75440
O675        O  0.93464298  0.03767720  0.56458896    -0.88200
O676        O  0.97140606  0.06909680  0.44034928    -0.81010
C677        C  0.91345427  0.11415452  0.51416366     0.92830
C678        C  0.85419137  0.01850578  0.58669723     0.92680
Mg679      Mg  0.00408945  0.99773757  0.46335148     1.57950
O680        O  0.05831976  0.99674320  0.46454969    -0.80940
O681        O  0.95005675  0.99951803  0.45900297    -0.75180
O682        O  0.89976127  0.09113193  0.52813938    -0.81020
O683        O  0.93080577  0.96984643  0.64218959    -0.82730
O684        O  0.03526169  0.90978817  0.53670394    -0.81050
C685        C  0.92882357  0.01601882  0.47230807     0.87120
O686        O  0.00042055  0.96342628  0.49976843    -0.88190
O687        O  0.00481211  0.03353281  0.49865425    -0.88300
O688        O  0.04018822  0.01809021  0.53354303    -0.75350
Mg689      Mg  0.89885651  0.03698842  0.52894373     1.57970
O690        O  0.93597880  0.11006416  0.49468949    -0.82730
H691        H  0.90051640  0.93747210  0.54540220    -0.06450
O692        O  0.00011379  0.96744355  0.56977542    -0.88000
H693        H  0.03066435  0.98784608  0.59938419    -0.06280
H694        H  0.97955713  0.93360227  0.46980256    -0.06450
C695        C  0.00634342  0.98538633  0.59192880     0.87100
C696        C  0.90805511  0.96175192  0.54786411     0.87680
C697        C  0.98234358  0.94114091  0.49400886     0.87730
H698        H  0.03461367  0.06367184  0.51938088    -0.06430
O699        O  0.96904084  0.07346711  0.54905373    -0.75460
Mg700      Mg  0.03611385  0.96401965  0.53559778     1.58000
H701        H  0.95532756  0.06750186  0.59466090    -0.06450
C702        C  0.94986291  0.94704628  0.64676547     0.92720
O703        O  0.99898779  0.89121988  0.57024298    -0.82690
C704        C  0.02162571  0.88689215  0.55095677     0.92780
O705        O  0.85848583  0.03735958  0.56354918    -0.82670
Mg706      Mg  0.97060151  0.06966524  0.49498410     1.58180
O707        O  0.96368907  0.93299547  0.62400332    -0.81010
O708        O  0.00498083  0.03257839  0.42277894    -0.82700
C709        C  0.78513803  0.99341560  0.63735045     0.03190
C710        C  0.81555642  0.00227813  0.62787307    -0.12960
C711        C  0.82168459  0.01102766  0.59661350     0.00690
C712        C  0.79708190  0.01060100  0.57436252    -0.11490
C713        C  0.76623006  0.00153707  0.58306209     0.03180
C714        C  0.76052563  0.99257830  0.61485040    -0.10910
H715        H  0.83447233  0.00303035  0.64516951     0.08770
H716        H  0.80231441  0.01638247  0.54992310     0.06300
H717        H  0.73676968  0.98675268  0.62248231     0.06150
C718        C  0.71684497  0.02537441  0.51093599     0.03190
C719        C  0.73976227  0.02560002  0.53503842    -0.12960
C720        C  0.74040148  0.00194103  0.55880978     0.00690
C721        C  0.71705456  0.97817732  0.55854463    -0.11490
C722        C  0.69361286  0.97750257  0.53486084     0.03180
C723        C  0.69388316  0.00123138  0.51129044    -0.10910
H724        H  0.75749198  0.04404620  0.53500839     0.08770
H725        H  0.71730692  0.96002956  0.57672125     0.06300
H726        H  0.67612478  0.00079499  0.49290388     0.06150
C727        C  0.70740677  0.06325160  0.42922166     0.03190
C728        C  0.70831367  0.04091265  0.45391906    -0.12960
C729        C  0.71720227  0.04961325  0.48479580     0.00690
C730        C  0.72560043  0.08150436  0.49029535    -0.11490
C731        C  0.72441659  0.10403230  0.46553179     0.03180
C732        C  0.71566005  0.09455114  0.43519099    -0.10910
H733        H  0.70296363  0.01646026  0.44871754     0.08770
H734        H  0.73119635  0.08921152  0.51400615     0.06300
H735        H  0.71453384  0.11190527  0.41620323     0.06150
C736        C  0.61471645  0.93509732  0.52290151     0.03190
C737        C  0.62231504  0.90415634  0.53226593    -0.12960
C738        C  0.65296096  0.89676014  0.54262302     0.00690
C739        C  0.67604730  0.92080438  0.54376505    -0.11490
C740        C  0.66894116  0.95201784  0.53434309     0.03180
C741        C  0.63804695  0.95874576  0.52395218    -0.10910
H742        H  0.60438635  0.88586651  0.53150002     0.08770
H743        H  0.69996237  0.91482642  0.55073402     0.06300
H744        H  0.63162951  0.98282474  0.51786861     0.06150
O745        O  0.50133294  0.03658982  0.49842198    -0.88290
C746        C  0.40890996  0.01437275  0.49303818     0.87740
Mg747      Mg  0.53729966  0.00176407  0.49534965     1.58150
O748        O  0.43510072  0.03256365  0.56890142    -0.88020
O749        O  0.48571299  0.07249972  0.53230026    -0.75350
C750        C  0.48555545  0.88583827  0.58865266     0.92790
O751        O  0.46726131  0.98192903  0.45932660    -0.75160
O752        O  0.50493140  0.89022492  0.56600828    -0.82670
Mg753      Mg  0.46567935  0.03615289  0.46267655     1.57960
C754        C  0.41394585  0.98267877  0.64627054     0.92710
O755        O  0.46478371  0.09089038  0.46274336    -0.80930
H756        H  0.45614265  0.06299286  0.59811653    -0.06270
C757        C  0.42941209  0.94004292  0.54835570     0.87650
O758        O  0.54123299  0.00040560  0.54948524    -0.75440
O759        O  0.43105739  0.03266479  0.49868861    -0.88200
O760        O  0.40013022  0.99647048  0.62318066    -0.81010
C761        C  0.35439187  0.05379308  0.54935761     0.92830
C762        C  0.45007616  0.11345539  0.47620819     0.92680
Mg763      Mg  0.47122830  0.96325247  0.60179210     1.57950
O764        O  0.47148455  0.90873853  0.60216100    -0.80940
O765        O  0.46976613  0.01742614  0.60465634    -0.75180
O766        O  0.37716750  0.06753115  0.53503508    -0.81020
O767        O  0.50079017  0.03669406  0.42267028    -0.82730
O768        O  0.55920509  0.93035908  0.52952353    -0.81050
C769        C  0.45329221  0.03866317  0.59100250     0.87120
O770        O  0.50553234  0.96612512  0.56553719    -0.88190
O771        O  0.43549936  0.96244041  0.56605746    -0.88300
O772        O  0.45062634  0.92648590  0.53203215    -0.75350
Mg773      Mg  0.43154880  0.06844224  0.53402656     1.57970
O774        O  0.35888476  0.03111838  0.56872821    -0.82730
H775        H  0.53141406  0.06656593  0.51900409    -0.06450
O776        O  0.50143089  0.96617710  0.49529532    -0.88000
H777        H  0.48034276  0.93616420  0.46567880    -0.06280
H778        H  0.53548670  0.98714608  0.59531546    -0.06450
C779        C  0.48334271  0.96040617  0.47302327     0.87100
C780        C  0.50716998  0.05897460  0.51623188     0.87680
C781        C  0.52787038  0.98419341  0.57111681     0.87730
H782        H  0.40510524  0.93258324  0.54578443    -0.06430
O783        O  0.39562739  0.99802255  0.51463039    -0.75460
Mg784      Mg  0.50470613  0.93016037  0.53034840     1.58000
H785        H  0.40139369  0.01135642  0.46881647    -0.06450
C786        C  0.52313420  0.01713726  0.41797907     0.92720
O787        O  0.57729345  0.96643950  0.49532803    -0.82690
C788        C  0.58190791  0.94391332  0.51492213     0.92780
O789        O  0.43065425  0.10854189  0.49868144    -0.82670
Mg790      Mg  0.39942176  0.99673514  0.56880985     1.58180
O791        O  0.53673012  0.00244112  0.44067550    -0.81010
O792        O  0.43670129  0.96349213  0.64220753    -0.82700
O793        O  0.49986019  0.96336845  0.99974668    -0.88290
C794        C  0.50504055  0.98370223  0.09227967     0.87740
Mg795      Mg  0.50373106  0.99842033  0.96396083     1.58150
O796        O  0.42926621  0.96677265  0.06521815    -0.88020
O797        O  0.46527773  0.92741069  0.01453025    -0.75350
C798        C  0.41189481  0.11481876  0.01498539     0.92790
O799        O  0.53925042  0.01732858  0.03460284    -0.75160
O800        O  0.43467673  0.11039079  0.99583899    -0.82670
Mg801      Mg  0.53532784  0.96309946  0.03578787     1.57960
C802        C  0.35264145  0.01692856  0.08590466     0.92710
O803        O  0.53430671  0.90853015  0.03604009    -0.80930
H804        H  0.39975119  0.93706992  0.04349661    -0.06270
C805        C  0.45120758  0.05931885  0.07151254     0.87650
O806        O  0.44969740  0.00033350  0.95941439    -0.75440
O807        O  0.49912627  0.96591378  0.06989772    -0.88200
O808        O  0.37549007  0.00280419  0.09971588    -0.81010
C809        C  0.44809840  0.94372277  0.14599601     0.92830
C810        C  0.52031582  0.88548696  0.04980455     0.92680
Mg811      Mg  0.39772169  0.03712851  0.02922380     1.57950
O812        O  0.39804988  0.09187294  0.02905858    -0.80940
O813        O  0.39414591  0.98294148  0.03033341    -0.75180
O814        O  0.46242561  0.93006885  0.12332773    -0.81020
O815        O  0.57611580  0.96317466  0.00165624    -0.82730
O816        O  0.47091137  0.07012153  0.94160617    -0.81050
C817        C  0.40725962  0.96126596  0.04671043     0.87120
O818        O  0.43403542  0.03442262  0.99509118    -0.88190
O819        O  0.43327857  0.03705705  0.06525945    -0.88300
O820        O  0.46765538  0.07316202  0.05038295    -0.75350
Mg821      Mg  0.46326234  0.93033847  0.06870998     1.57970
O822        O  0.42890741  0.96644607  0.14120791    -0.82730
H823        H  0.47920530  0.93412890  0.96907289    -0.06450
O824        O  0.50412299  0.03373742  0.99981821    -0.88000
H825        H  0.53379091  0.06327169  0.02158021    -0.06280
H826        H  0.40408977  0.01412077  0.96479885    -0.06450
C827        C  0.52616614  0.03911727  0.01832922     0.87100
C828        C  0.48181698  0.94121159  0.99343960     0.87680
C829        C  0.42827942  0.01667830  0.97263677     0.87730
H830        H  0.45379193  0.06647059  0.09586154    -0.06430
O831        O  0.48375107  0.00021272  0.10549879    -0.75460
Mg832      Mg  0.46970903  0.07006431  0.99623553     1.58000
H833        H  0.52927270  0.98619615  0.10000409    -0.06450
C834        C  0.58078073  0.98260180  0.97906224     0.92720
O835        O  0.50478278  0.03395221  0.92386973    -0.82690
C836        C  0.48547478  0.05656463  0.91901331     0.92780
O837        O  0.49750346  0.88969228  0.06888702    -0.82670
Mg838      Mg  0.42972400  0.00198112  0.10108827     1.58180
O839        O  0.55811373  0.99710930  0.96530378    -0.81010
O840        O  0.35701434  0.03655368  0.06341439    -0.82700
O841        O  0.69074190  0.80201807  0.02082641    -0.88290
C842        C  0.70061253  0.75329269  0.10248154     0.87740
Mg843      Mg  0.66655848  0.78162886  0.98187061     1.58150
O844        O  0.76924066  0.76173709  0.05792496    -0.88020
O845        O  0.73647946  0.82291140  0.03379099    -0.75350
C846        C  0.72713187  0.63874991  0.97061964     0.92790
O847        O  0.64486576  0.75114974  0.05233103    -0.75160
O848        O  0.70645570  0.65688991  0.95850829    -0.82670
Mg849      Mg  0.66641827  0.79995616  0.06427407     1.57960
C850        C  0.82969908  0.68961051  0.04126890     0.92710
O851        O  0.68569905  0.85066250  0.07580890    -0.80930
H852        H  0.80112493  0.78894202  0.03573705    -0.06270
C853        C  0.72177408  0.67948894  0.04920933     0.87650
O854        O  0.71532069  0.77016080  0.95983042    -0.75440
O855        O  0.70579548  0.77587263  0.08434694    -0.88200
O856        O  0.81881743  0.70732828  0.06298448    -0.81010
C857        C  0.77868300  0.75935930  0.14343422     0.92830
C858        C  0.70761668  0.86141527  0.09348194     0.92680
Mg859      Mg  0.76835478  0.69992563  0.00026892     1.57950
O860        O  0.74893986  0.64931486  0.98854017    -0.80940
O861        O  0.79011064  0.74863513  0.01227620    -0.75180
O862        O  0.76067103  0.78103381  0.13264307    -0.81020
O863        O  0.62289454  0.82246297  0.04381293    -0.82730
O864        O  0.67449382  0.71928899  0.93165116    -0.81050
C865        C  0.78745211  0.76734693  0.03561726     0.87120
O866        O  0.72907843  0.72421868  0.98024431    -0.88190
O867        O  0.74395358  0.69788255  0.04368753    -0.88300
O868        O  0.69826507  0.67699464  0.03053022    -0.75350
Mg869      Mg  0.74895586  0.80065067  0.08232718     1.57970
O870        O  0.79117520  0.73892230  0.12547942    -0.82730
H871        H  0.71245338  0.83435334  0.99368799    -0.06450
O872        O  0.66556625  0.73819843  0.00653997    -0.88000
H873        H  0.63390502  0.71083613  0.02886207    -0.06280
H874        H  0.75581595  0.74702848  0.94837515    -0.06450
C875        C  0.64748374  0.73249103  0.02893811     0.87100
C876        C  0.71289495  0.82041430  0.01521914     0.87680
C877        C  0.73430002  0.74683917  0.96217472     0.87730
H878        H  0.72214306  0.66552417  0.07072456    -0.06430
O879        O  0.71953586  0.72992077  0.10476230    -0.75460
Mg880      Mg  0.68592684  0.69944496  0.98198619     1.58000
H881        H  0.67915635  0.75316890  0.11637350    -0.06450
C882        C  0.60497830  0.81000901  0.02323688     0.92720
O883        O  0.64366447  0.76111957  0.93886834    -0.82690
C884        C  0.65645198  0.74092754  0.92084370     0.92780
O885        O  0.72845755  0.84342143  0.10556265    -0.82670
Mg886      Mg  0.76820627  0.71831164  0.08261854     1.58180
O887        O  0.61593727  0.79241387  0.00146859    -0.81010
O888        O  0.81172099  0.67714610  0.02076123    -0.82700
C889        C  0.78045339  0.10351068  0.02278005     0.03190
C890        C  0.75827797  0.07874224  0.02229530    -0.12960
C891        C  0.76696991  0.04763863  0.03082367     0.00690
C892        C  0.79868318  0.04189383  0.03990444    -0.11490
C893        C  0.82103125  0.06664944  0.03985520     0.03180
C894        C  0.81155735  0.09725160  0.03167143    -0.10910
H895        H  0.73394285  0.08400390  0.01626622     0.08770
H896        H  0.80641904  0.01802992  0.04524331     0.06300
H897        H  0.82880552  0.11623534  0.03146058     0.06150
C898        C  0.71937028  0.97398125  0.05421771     0.03190
C899        C  0.74280834  0.99773585  0.05351583    -0.12960
C900        C  0.74287607  0.02155791  0.03007122     0.00690
C901        C  0.71909977  0.02105072  0.00660476    -0.11490
C902        C  0.69537055  0.99764401  0.00662841     0.03180
C903        C  0.69599864  0.97411353  0.03049102    -0.10910
H904        H  0.76089417  0.99797431  0.07161122     0.08770
H905        H  0.71877641  0.03921915  0.98844676     0.06300
H906        H  0.67791995  0.95600814  0.03087940     0.06150
C907        C  0.72742281  0.93633805  0.13625288     0.03190
C908        C  0.71884116  0.90507507  0.13020624    -0.12960
C909        C  0.71041924  0.89558559  0.09972025     0.00690
C910        C  0.70990480  0.91807620  0.07492402    -0.11490
C911        C  0.71872266  0.94984487  0.08043211     0.03180
C912        C  0.72737585  0.95855155  0.11137682    -0.10910
H913        H  0.71943676  0.88775408  0.14924306     0.08770
H914        H  0.70448153  0.91041016  0.05115677     0.06300
H915        H  0.73312199  0.98294480  0.11645149     0.06150
C916        C  0.61345308  0.98967080  0.96927910     0.03190
C917        C  0.63822045  0.98973069  0.99145289    -0.12960
C918        C  0.66922928  0.99830408  0.98256517     0.00690
C919        C  0.67484821  0.00694980  0.95065502    -0.11490
C920        C  0.65008649  0.00629768  0.92828251     0.03180
C921        C  0.61960070  0.99807115  0.93795896    -0.10910
H922        H  0.63302159  0.98403400  0.01591674     0.08770
H923        H  0.69864064  0.01235188  0.94282952     0.06300
H924        H  0.60061727  0.99746590  0.92072451     0.06150
O925        O  0.76898150  0.98710128  0.75701331    -0.88290
C926        C  0.72181240  0.06950186  0.76558966     0.87740
Mg927      Mg  0.74868863  0.94860508  0.73227674     1.58150
O928        O  0.72859020  0.02533594  0.83496284    -0.88020
O929        O  0.78911915  0.99983408  0.80312581    -0.75350
C930        C  0.60525674  0.93955080  0.79188703     0.92790
O931        O  0.71960332  0.01948343  0.70997449    -0.75160
O932        O  0.62324811  0.92702959  0.77143291    -0.82670
Mg933      Mg  0.76822325  0.03052573  0.73247470     1.57960
C934        C  0.65617752  0.00908565  0.89408997     0.92710
O935        O  0.81863423  0.04049381  0.75239052    -0.80930
H936        H  0.75525540  0.00295995  0.86719085    -0.06270
C937        C  0.64733769  0.01708096  0.78606988     0.87650
O938        O  0.73618051  0.92615404  0.78079640    -0.75440
O939        O  0.74376730  0.05089991  0.77131668    -0.88200
O940        O  0.67395431  0.03090254  0.88317974    -0.81010
C941        C  0.72747251  0.11094931  0.84362510     0.92830
C942        C  0.82937104  0.05801185  0.77425764     0.92680
Mg943      Mg  0.66657343  0.96800463  0.83321146     1.57950
O944        O  0.61608264  0.95725277  0.81360802    -0.80940
O945        O  0.71509437  0.97941467  0.85549052    -0.75180
O946        O  0.74926073  0.09982605  0.82604081    -0.81020
O947        O  0.79150685  0.01017228  0.68972083    -0.82730
O948        O  0.68577394  0.89886214  0.73920368    -0.81050
C949        C  0.73384134  0.00289790  0.85323432     0.87120
O950        O  0.69087703  0.94769665  0.79415471    -0.88190
O951        O  0.66535600  0.01146492  0.80854485    -0.88300
O952        O  0.64486103  0.99839178  0.76268431    -0.75350
Mg953      Mg  0.76794771  0.04885015  0.81482763     1.57970
O954        O  0.70635537  0.09326681  0.85571272    -0.82730
H955        H  0.80010935  0.95947403  0.77975863    -0.06450
O956        O  0.70571153  0.97365565  0.73048339    -0.88000
H957        H  0.67913230  0.99636603  0.69839954    -0.06280
H958        H  0.71234816  0.91504933  0.82112262    -0.06450
C959        C  0.70058175  0.99620488  0.71230230     0.87100
C960        C  0.78670378  0.98123981  0.77966172     0.87680
C961        C  0.71282344  0.92901217  0.79960781     0.87730
H962        H  0.63369960  0.03870066  0.78606422    -0.06430
O963        O  0.69825554  0.07235768  0.78414310    -0.75460
Mg964      Mg  0.66647552  0.94960346  0.75075585     1.58000
H965        H  0.72241130  0.08331965  0.74398556    -0.06450
C966        C  0.77882951  0.99014221  0.67147817     0.92720
O967        O  0.72793508  0.90627098  0.70868924    -0.82690
C968        C  0.70741613  0.88818325  0.72114746     0.92780
O969        O  0.81133676  0.07070676  0.79453117    -0.82670
Mg970      Mg  0.68565953  0.05038742  0.83278612     1.58180
O971        O  0.76054172  0.96855789  0.68200033    -0.81010
O972        O  0.64371695  0.98853845  0.87622337    -0.82700
C973        C  0.07233690  0.99303897  0.84877233     0.03190
C974        C  0.04877307  0.99223944  0.82517265    -0.12960
C975        C  0.01690110  0.99950851  0.83266803     0.00690
C976        C  0.00937438  0.00704414  0.86440261    -0.11490
C977        C  0.03298675  0.00684804  0.88788938     0.03180
C978        C  0.06403623  0.00007836  0.87970295    -0.10910
H979        H  0.05548250  0.98753254  0.80094630     0.08770
H980        H  0.98507557  0.01150271  0.87112501     0.06300
H981        H  0.08218411  0.00026931  0.89786497     0.06150
C982        C  0.94369600  0.02309824  0.78427291     0.03190
C983        C  0.96787473  0.02291288  0.80727111    -0.12960
C984        C  0.99159990  0.99936146  0.80765262     0.00690
C985        C  0.99099223  0.97575517  0.78415252    -0.11490
C986        C  0.96721976  0.97533116  0.76071793     0.03180
C987        C  0.94361997  0.99903023  0.76135202    -0.10910
H988        H  0.96821280  0.04120176  0.82504003     0.08770
H989        H  0.00917363  0.95773470  0.78402367     0.06300
H990        H  0.92513256  0.99893251  0.74365895     0.06150
C991        C  0.90277603  0.10398562  0.78988817     0.03190
C992        C  0.87174056  0.09581749  0.78306771    -0.12960
C993        C  0.86335262  0.06479778  0.77669223     0.00690
C994        C  0.88674426  0.04104648  0.77667627    -0.11490
C995        C  0.91862678  0.04844438  0.78400565     0.03180
C996        C  0.92629347  0.08033918  0.79084967    -0.10910
H997        H  0.85366064  0.11405106  0.78271986     0.08770
H998        H  0.87984701  0.01677848  0.77247272     0.06300
H999        H  0.95058856  0.08701758  0.79536943     0.06150
C1000       C  0.95738518  0.93742388  0.67942099     0.03190
C1001       C  0.95823049  0.95969776  0.70392786    -0.12960
C1002       C  0.96728933  0.95093978  0.73490262     0.00690
C1003       C  0.97556815  0.91890977  0.74070737    -0.11490
C1004       C  0.97407870  0.89642267  0.71612373     0.03180
C1005       C  0.96549649  0.90612785  0.68571772    -0.10910
H1006       H  0.95274345  0.98416487  0.69853046     0.08770
H1007       H  0.98133896  0.91114054  0.76447611     0.06300
H1008       H  0.96434609  0.88889380  0.66688309     0.06150
O1009       O  0.91489473  0.76151197  0.75593619    -0.88290
C1010       C  0.96310046  0.67948196  0.76524539     0.87740
Mg1011     Mg  0.93499531  0.80092964  0.73180981     1.58150
O1012       O  0.95452187  0.72330916  0.83397028    -0.88020
O1013       O  0.89380672  0.74755528  0.80144498    -0.75350
C1014       C  0.07800031  0.80927385  0.79143747     0.92790
O1015       O  0.96518691  0.73052808  0.70933457    -0.75160
O1016       O  0.06012987  0.82196103  0.77086182    -0.82670
Mg1017     Mg  0.91665141  0.71841480  0.73138498     1.57960
C1018       C  0.02598703  0.74034138  0.89358394     0.92710
O1019       O  0.86622021  0.70715098  0.75085849    -0.80930
H1020       H  0.92720237  0.74559958  0.86539742    -0.06270
C1021       C  0.03605341  0.73212182  0.78581303     0.87650
O1022       O  0.94684900  0.82245148  0.78042083    -0.75440
O1023       O  0.94092081  0.69787272  0.77048865    -0.88200
O1024       O  0.00810499  0.71853475  0.88321192    -0.81010
C1025       C  0.95723653  0.63769337  0.84333031     0.92830
C1026       C  0.85548156  0.68887599  0.77239400     0.92680
Mg1027     Mg  0.01641264  0.78085849  0.83238367     1.57950
O1028       O  0.06712044  0.79143585  0.81324007    -0.80940
O1029       O  0.96757028  0.76922415  0.85418208    -0.75180
O1030       O  0.93573226  0.64828241  0.82496860    -0.81020
O1031       O  0.89373307  0.73927676  0.68844471    -0.82730
O1032       O  0.99827846  0.85074348  0.73952131    -0.81050
C1033       C  0.94886436  0.74573184  0.85182624     0.87120
O1034       O  0.99250509  0.80129848  0.79338615    -0.88190
O1035       O  0.01793720  0.73768099  0.80814580    -0.88300
O1036       O  0.03868580  0.75091534  0.76225918    -0.75350
Mg1037     Mg  0.91596587  0.69886259  0.81350861     1.57970
O1038       O  0.97717206  0.65596410  0.85620330    -0.82730
H1039       H  0.88267210  0.78814885  0.77794169    -0.06450
O1040       O  0.97818563  0.77627425  0.72993628    -0.88000
H1041       H  0.00524165  0.75455263  0.69790041    -0.06280
H1042       H  0.97086059  0.83327323  0.82052081    -0.06450
C1043       C  0.98373792  0.75412572  0.71171628     0.87100
C1044       C  0.89650031  0.76665016  0.77813780     0.87680
C1045       C  0.97041303  0.81967659  0.79898598     0.87730
H1046       H  0.04960244  0.71044648  0.78606556    -0.06430
O1047       O  0.98631136  0.67663077  0.78427580    -0.75460
Mg1048     Mg  0.01720817  0.79988410  0.75031746     1.58000
H1049       H  0.96295714  0.66580130  0.74375970    -0.06450
C1050       C  0.90610727  0.76002257  0.67046691     0.92720
O1051       O  0.95566959  0.84446747  0.70946159    -0.82690
C1052       C  0.97643145  0.86208658  0.72207153     0.92780
O1053       O  0.87354610  0.67573995  0.79252840    -0.82670
Mg1054     Mg  0.99771067  0.69878977  0.83285387     1.58180
O1055       O  0.92375697  0.78187214  0.68126637    -0.81010
O1056       O  0.03884859  0.76039239  0.87523171    -0.82700
C1057       C  0.95718485  0.81254129  0.13611818     0.03190
C1058       C  0.95791786  0.79043104  0.11147562    -0.12960
C1059       C  0.96697239  0.79939493  0.08057332     0.00690
C1060       C  0.97541815  0.83136083  0.07495938    -0.11490
C1061       C  0.97407567  0.85365129  0.09965623     0.03180
C1062       C  0.96543783  0.84384206  0.13000968    -0.10910
H1063       H  0.95232672  0.76594960  0.11669101     0.08770
H1064       H  0.98116643  0.83926214  0.05122553     0.06300
H1065       H  0.96436329  0.86098719  0.14892928     0.06150
C1066       C  0.96670445  0.77535094  0.05455033     0.03190
C1067       C  0.94292842  0.75184520  0.05369647    -0.12960
C1068       C  0.94288140  0.72812065  0.03049435     0.00690
C1069       C  0.96693530  0.72864644  0.00732997    -0.11490
C1070       C  0.99092105  0.75186264  0.00730381     0.03180
C1071       C  0.99051733  0.77508064  0.03114260    -0.10910
H1072       H  0.92453917  0.75173656  0.07149062     0.08770
H1073       H  0.96714569  0.71068771  0.98924233     0.06300
H1074       H  0.00887970  0.79290545  0.03157782     0.06150
C1075       C  0.03282375  0.74319953  0.92747517     0.03190
C1076       C  0.00904399  0.74358033  0.95075741    -0.12960
C1077       C  0.01637803  0.75151480  0.98243896     0.00690
C1078       C  0.04824219  0.75869477  0.99005356    -0.11490
C1079       C  0.07194673  0.75745301  0.96661834     0.03180
C1080       C  0.06382434  0.74996668  0.93575058    -0.10910
H1081       H  0.98477803  0.73919790  0.94387691     0.08770
H1082       H  0.05484026  0.76366570  0.01425356     0.06300
H1083       H  0.08206824  0.74943497  0.91769416     0.06150
C1084       C  0.90467929  0.64645817  0.02237304     0.03190
C1085       C  0.87341861  0.65283672  0.03059012    -0.12960
C1086       C  0.86394166  0.68338755  0.03863549     0.00690
C1087       C  0.88654623  0.70798895  0.03934214    -0.11490
C1088       C  0.91845935  0.70217013  0.03093240     0.03180
C1089       C  0.92704638  0.67109482  0.02248329    -0.10910
H1090       H  0.85605766  0.63397324  0.02996619     0.08770
H1091       H  0.87890582  0.73180600  0.04464704     0.06300
H1092       H  0.95145279  0.66572285  0.01694189     0.06150
O1093       O  0.99245137  0.94807577  0.02201559    -0.88290
C1094       C  0.98345992  0.99551697  0.10375256     0.87740
Mg1095     Mg  0.01628340  0.96826806  0.98287239     1.58150
O1096       O  0.91459039  0.98777721  0.05955096    -0.88020
O1097       O  0.94681718  0.92696181  0.03515627    -0.75350
C1098       C  0.95720275  0.11066295  0.97366207     0.92790
O1099       O  0.03883766  0.99853954  0.05322540    -0.75160
O1100       O  0.97693115  0.09239485  0.96054264    -0.82670
Mg1101     Mg  0.01710448  0.94982253  0.06514813     1.57960
C1102       C  0.85513257  0.06049311  0.04302529     0.92710
O1103       O  0.99822061  0.89913957  0.07606610    -0.80930
H1104       H  0.88230778  0.96099303  0.03780444    -0.06270
C1105       C  0.96302500  0.06919382  0.05082229     0.87650
O1106       O  0.96745472  0.97993230  0.96115811    -0.75440
O1107       O  0.97802954  0.97352738  0.08532060    -0.88200
O1108       O  0.86570964  0.04216024  0.06460128    -0.81010
C1109       C  0.90595897  0.98937770  0.14485397     0.92830
C1110       C  0.97652513  0.88791218  0.09374316     0.92680
Mg1111     Mg  0.91579009  0.05003144  0.00240094     1.57950
O1112       O  0.93561859  0.10024534  0.99188108    -0.80940
O1113       O  0.89336736  0.00147593  0.01408019    -0.75180
O1114       O  0.92391940  0.96779194  0.13410180    -0.81020
O1115       O  0.05991819  0.92775471  0.04467258    -0.82730
O1116       O  0.00806900  0.03082487  0.93247883    -0.81050
C1117       C  0.89612096  0.98249993  0.03745646     0.87120
O1118       O  0.95446252  0.02546396  0.98214232    -0.88190
O1119       O  0.94056622  0.05117873  0.04542989    -0.88300
O1120       O  0.98636700  0.07175536  0.03191414    -0.75350
Mg1121     Mg  0.93499140  0.94864084  0.08371664     1.57970
O1122       O  0.89309132  0.00976493  0.12683089    -0.82730
H1123       H  0.97073863  0.91601938  0.99503530    -0.06450
O1124       O  0.01812643  0.01128679  0.00725168    -0.88000
H1125       H  0.05002088  0.03860084  0.02888960    -0.06280
H1126       H  0.92707909  0.00374387  0.95037320    -0.06450
C1127       C  0.03635171  0.01700597  0.02943509     0.87100
C1128       C  0.97033997  0.92968465  0.01652712     0.87680
C1129       C  0.94875634  0.00336879  0.96391744     0.87730
H1130       H  0.96304019  0.08274920  0.07238842    -0.06430
O1131       O  0.96468113  0.01889314  0.10643869    -0.75460
Mg1132     Mg  0.99764713  0.04997582  0.98315499     1.58000
H1133       H  0.00497449  0.99510296  0.11755199    -0.06450
C1134       C  0.07773566  0.94022103  0.02391632     0.92720
O1135       O  0.03859338  0.98870330  0.93989858    -0.82690
C1136       C  0.02592786  0.00912903  0.92181292     0.92780
O1137       O  0.95589294  0.90557304  0.10643596    -0.82670
Mg1138     Mg  0.91613145  0.03079898  0.08423526     1.58180
O1139       O  0.06686709  0.95775465  0.00188991    -0.81010
O1140       O  0.87333748  0.07343629  0.02292590    -0.82700
O1141       O  0.93037012  0.46576120  0.06619957    -0.88290
C1142       C  0.95271901  0.55829128  0.07228569     0.87740
Mg1143     Mg  0.96502079  0.42940019  0.06945799     1.58150
O1144       O  0.93492152  0.53273814  0.99617041    -0.88020
O1145       O  0.89450795  0.48208017  0.03220373    -0.75350
C1146       C  0.08204671  0.48231691  0.97932785     0.92790
O1147       O  0.98488452  0.49919101  0.10610667    -0.75160
O1148       O  0.07790222  0.46297206  0.00211262    -0.82670
Mg1149     Mg  0.93075738  0.50106495  0.10212175     1.57960
C1150       C  0.98569314  0.55364332  0.91952442     0.92710
O1151       O  0.87596642  0.50239087  0.10159261    -0.80930
H1152       H  0.90479129  0.51163514  0.96661566    -0.06270
C1153       C  0.02718656  0.53781525  0.01850278     0.87650
O1154       O  0.96678275  0.42611624  0.01543344    -0.75440
O1155       O  0.93447697  0.53618715  0.06634526    -0.88200
O1156       O  0.97166898  0.56744988  0.94229790    -0.81010
C1157       C  0.91422215  0.61369304  0.01534546     0.92830
C1158       C  0.85346480  0.51741054  0.08805807     0.92680
Mg1159     Mg  0.00462203  0.49641026  0.96461519     1.57950
O1160       O  0.05899533  0.49603613  0.96543271    -0.80940
O1161       O  0.95042576  0.49803769  0.96091742    -0.75180
O1162       O  0.90024518  0.59092403  0.02960195    -0.81020
O1163       O  0.93008169  0.46544200  0.14194010    -0.82730
O1164       O  0.03716835  0.40773483  0.03667338    -0.81050
C1165       C  0.92905199  0.51450726  0.97411350     0.87120
O1166       O  0.00154327  0.46183479  0.00056301    -0.88190
O1167       O  0.00504544  0.53188415  0.00030554    -0.88300
O1168       O  0.04058548  0.51645670  0.03503593    -0.75350
Mg1169     Mg  0.89885390  0.53628842  0.03061298     1.57970
O1170       O  0.93689524  0.60905119  0.99619783    -0.82730
H1171       H  0.90020693  0.43615268  0.04521524    -0.06450
O1172       O  0.00073840  0.46507628  0.07047787    -0.88000
H1173       H  0.03059034  0.48580097  0.10056752    -0.06280
H1174       H  0.98100197  0.43238426  0.97002828    -0.06450
C1175       C  0.00639591  0.48298759  0.09283443     0.87100
C1176       C  0.90794743  0.46030799  0.04819202     0.87680
C1177       C  0.98352718  0.43963500  0.99435340     0.87730
H1178       H  0.03453083  0.56211155  0.02133545    -0.06430
O1179       O  0.96921870  0.57174618  0.05093112    -0.75460
Mg1180     Mg  0.03720003  0.46232418  0.03641750     1.58000
H1181       H  0.95552450  0.56564341  0.09654929    -0.06450
C1182       C  0.94961889  0.44300386  0.14662114     0.92720
O1183       O  0.00025168  0.38897830  0.06943949    -0.82690
C1184       C  0.02325219  0.38470163  0.05047404     0.92780
O1185       O  0.85847832  0.53693956  0.06556650    -0.82670
Mg1186     Mg  0.97098006  0.56816687  0.99675317     1.58180
O1187       O  0.96412737  0.42950197  0.12396846    -0.81010
O1188       O  0.00493075  0.53099507  0.92409461    -0.82700
C1189       C  0.96046534  0.60352790  0.84976338     0.03190
C1190       C  0.96912445  0.59421558  0.88032522    -0.12960
C1191       C  0.97810725  0.56315296  0.88682426     0.00690
C1192       C  0.97802416  0.54078927  0.86240844    -0.11490
C1193       C  0.96900513  0.54920904  0.83137434     0.03180
C1194       C  0.95993275  0.58094161  0.82532772    -0.10910
H1195       H  0.96964642  0.61155728  0.89908242     0.08770
H1196       H  0.98400517  0.51647028  0.86794380     0.06300
H1197       H  0.95421130  0.58847899  0.80147493     0.06150
C1198       C  0.99257482  0.47664586  0.78269911     0.03190
C1199       C  0.96833968  0.47668872  0.75983319    -0.12960
C1200       C  0.94492231  0.50048439  0.75913887     0.00690
C1201       C  0.94581398  0.52436772  0.78225923    -0.11490
C1202       C  0.96938014  0.52471517  0.80578230     0.03180
C1203       C  0.99282160  0.50087994  0.80543188    -0.10910
H1204       H  0.96778173  0.45809719  0.74240993     0.08770
H1205       H  0.92794864  0.54268047  0.78211751     0.06300
H1206       H  0.01127468  0.50100803  0.82315577     0.06150
C1207       C  0.03339599  0.39597959  0.77583539     0.03190
C1208       C  0.00985646  0.41955190  0.77543684    -0.12960
C1209       C  0.01753604  0.45129437  0.78286227     0.00690
C1210       C  0.04938223  0.45857006  0.79035733    -0.11490
C1211       C  0.07271820  0.43480887  0.78997617     0.03180
C1212       C  0.06437937  0.40398377  0.78286395    -0.10910
H1213       H  0.98556877  0.41289248  0.77085985     0.08770
H1214       H  0.05631258  0.48275624  0.79493969     0.06300
H1215       H  0.08246078  0.38574521  0.78285353     0.06150
C1216       C  0.90273237  0.49022629  0.67976129     0.03190
C1217       C  0.92622118  0.49020569  0.70335681    -0.12960
C1218       C  0.91957330  0.50034396  0.73428783     0.00690
C1219       C  0.88860167  0.51040373  0.74123552    -0.11490
C1220       C  0.86471410  0.51026362  0.71800359     0.03180
C1221       C  0.87201543  0.50022082  0.68729207    -0.10910
H1222       H  0.95014934  0.48357853  0.69714477     0.08770
H1223       H  0.88263698  0.51712951  0.76515884     0.06300
H1224       H  0.85380886  0.50019327  0.66925673     0.06150
O1225       O  0.00359320  0.46774141  0.56559817    -0.88290
C1226       C  0.98197575  0.46216060  0.47328163     0.87740
Mg1227     Mg  0.96903262  0.46413301  0.60160681     1.58150
O1228       O  0.99945094  0.53809093  0.49907635    -0.88020
O1229       O  0.03934357  0.50230298  0.55034767    -0.75350
C1230       C  0.85274053  0.55603332  0.55024778     0.92790
O1231       O  0.94899209  0.42843503  0.53143992    -0.75160
O1232       O  0.85746172  0.53362141  0.56992022    -0.82670
Mg1233     Mg  0.00318790  0.43219500  0.52987158     1.57960
C1234       C  0.94910930  0.61460088  0.47704218     0.92710
O1235       O  0.05760516  0.43276299  0.52925217    -0.80930
H1236       H  0.02962685  0.56791398  0.51971272    -0.06270
C1237       C  0.90693028  0.51624507  0.49371372     0.87650
O1238       O  0.96745152  0.51824075  0.60557805    -0.75440
O1239       O  0.99999146  0.46825345  0.49551982    -0.88200
O1240       O  0.96335812  0.59187025  0.46341854    -0.81010
C1241       C  0.02144597  0.51823571  0.41892508     0.92830
C1242       C  0.08054567  0.44661103  0.51530940     0.92680
Mg1243     Mg  0.92991163  0.56996321  0.53482836     1.57950
O1244       O  0.87537870  0.56958800  0.53553567    -0.80940
O1245       O  0.98401352  0.57376564  0.53327518    -0.75180
O1246       O  0.03520507  0.50452412  0.44206249    -0.81020
O1247       O  0.00364432  0.39172525  0.56428575    -0.82730
O1248       O  0.89785189  0.49736949  0.62413578    -0.81050
C1249       C  0.00536082  0.56038391  0.51697009     0.87120
O1250       O  0.93319716  0.53392001  0.56970824    -0.88190
O1251       O  0.92933239  0.53418732  0.49943142    -0.88300
O1252       O  0.89338713  0.50008008  0.51527078    -0.75350
Mg1253     Mg  0.03569414  0.50397276  0.49623398     1.57970
O1254       O  0.99856156  0.53732998  0.42286277    -0.82730
H1255       H  0.03323006  0.48840420  0.59594494    -0.06450
O1256       O  0.93331183  0.46376525  0.56595575    -0.88000
H1257       H  0.90328420  0.43415101  0.54478691    -0.06280
H1258       H  0.95400061  0.56393321  0.59952589    -0.06450
C1259       C  0.92752620  0.44167628  0.54774640     0.87100
C1260       C  0.02584269  0.48576504  0.57163685     0.87680
C1261       C  0.95120029  0.53971323  0.59203399     0.87730
H1262       H  0.89935937  0.51342164  0.46948463    -0.06430
O1263       O  0.96530862  0.48333354  0.45980226    -0.75460
Mg1264     Mg  0.89733749  0.49838409  0.56944089     1.58000
H1265       H  0.97938239  0.43786524  0.46596174    -0.06450
C1266       C  0.98428569  0.38712175  0.58680596     0.92720
O1267       O  0.93398733  0.46329230  0.64199221    -0.82690
C1268       C  0.91149599  0.48268505  0.64680388     0.92780
O1269       O  0.07625801  0.46957653  0.49623552    -0.82670
Mg1270     Mg  0.96377834  0.53738900  0.46323131     1.58180
O1271       O  0.97001315  0.40979975  0.60051596    -0.81010
O1272       O  0.92957974  0.60999427  0.49948499    -0.82700
C1273       C  0.57071856  0.81617604  0.02577346     0.03190
C1274       C  0.56123275  0.84660823  0.03423764    -0.12960
C1275       C  0.52990952  0.85291247  0.04218573     0.00690
C1276       C  0.50746674  0.82841301  0.04124310    -0.11490
C1277       C  0.51604926  0.79742178  0.03251370     0.03180
C1278       C  0.54806176  0.79162428  0.02444198    -0.10910
H1279       H  0.57861264  0.86542585  0.03538693     0.08770
H1280       H  0.48300693  0.83386874  0.04644284     0.06300
H1281       H  0.55572073  0.76786574  0.01892381     0.06150
C1282       C  0.44335250  0.74791731  0.05583466     0.03190
C1283       C  0.46717068  0.77133569  0.05546332    -0.12960
C1284       C  0.49153272  0.77153402  0.03269842     0.00690
C1285       C  0.49176370  0.74744961  0.00991916    -0.11490
C1286       C  0.46791802  0.72397141  0.00915011     0.03180
C1287       C  0.44390051  0.72444253  0.03234154    -0.10910
H1288       H  0.46677262  0.78961624  0.07319863     0.08770
H1289       H  0.51039373  0.74725276  0.99238195     0.06300
H1290       H  0.42563110  0.70651901  0.03209982     0.06150
C1291       C  0.36381789  0.74180298  0.09979653     0.03190
C1292       C  0.38664129  0.73989904  0.07543052    -0.12960
C1293       C  0.41859457  0.74803151  0.08136302     0.00690
C1294       C  0.42696831  0.75739544  0.11217650    -0.11490
C1295       C  0.40438232  0.75894924  0.13641787     0.03180
C1296       C  0.37311968  0.75088727  0.13010780    -0.10910
H1297       H  0.37920483  0.73390933  0.05171693     0.08770
H1298       H  0.45140940  0.76262641  0.11771007     0.06300
H1299       H  0.35565735  0.75243014  0.14882065     0.06150
C1300       C  0.47809059  0.68625154  0.92812213     0.03190
C1301       C  0.47716291  0.70848721  0.95258073    -0.12960
C1302       C  0.46782893  0.69972604  0.98341490     0.00690
C1303       C  0.45923927  0.66783884  0.98919665    -0.11490
C1304       C  0.46068923  0.64539844  0.96465870     0.03180
C1305       C  0.46962759  0.65501326  0.93430807    -0.10910
H1306       H  0.48280111  0.73293579  0.94724879     0.08770
H1307       H  0.45329885  0.66011517  0.01294022     0.06300
H1308       H  0.47079277  0.63777932  0.91547568     0.06150
O1309       O  0.45674588  0.52567296  0.97973580    -0.88290
C1310       C  0.53850281  0.51703729  0.02776837     0.87740
Mg1311     Mg  0.41776845  0.54932904  0.99994140     1.58150
O1312       O  0.49435072  0.44808375  0.02050404    -0.88020
O1313       O  0.46987173  0.47999023  0.95918117    -0.75350
C1314       C  0.40876518  0.49040334  0.14330673     0.92790
O1315       O  0.48795530  0.57254111  0.02971489    -0.75160
O1316       O  0.39617190  0.51064322  0.12498591    -0.82670
Mg1317     Mg  0.49975968  0.55059559  0.98125320     1.57960
C1318       C  0.47842482  0.38851056  0.09335865     0.92710
O1319       O  0.51085383  0.53130461  0.93096737    -0.80930
H1320       H  0.47245904  0.41580135  0.99391580    -0.06270
C1321       C  0.48617100  0.49619685  0.10178177     0.87650
O1322       O  0.39626733  0.50048589  0.01217072    -0.75440
O1323       O  0.52010569  0.51158609  0.00565105    -0.88200
O1324       O  0.49985272  0.39915422  0.07499806    -0.81010
C1325       C  0.57972067  0.43935227  0.02231056     0.92830
C1326       C  0.52864914  0.50957033  0.92025695     0.92680
Mg1327     Mg  0.43754862  0.44903614  0.08280669     1.57950
O1328       O  0.42679194  0.46868833  0.13301393    -0.80940
O1329       O  0.44903235  0.42675491  0.03434630    -0.75180
O1330       O  0.56889036  0.45741262  0.00066179    -0.81020
O1331       O  0.47884597  0.59345495  0.95826502    -0.82730
O1332       O  0.36804170  0.54119916  0.06299816    -0.81050
C1333       C  0.47225031  0.42958323  0.01533579     0.87120
O1334       O  0.41712099  0.48766006  0.05808694    -0.88190
O1335       O  0.48059796  0.47384150  0.08383331    -0.88300
O1336       O  0.46741858  0.51963723  0.10413480    -0.75350
Mg1337     Mg  0.51846988  0.46835942  0.98129514     1.57970
O1338       O  0.56178587  0.42648555  0.04272048    -0.82730
H1339       H  0.42968024  0.50381656  0.94780447    -0.06450
O1340       O  0.44251577  0.55114836  0.04298975    -0.88000
H1341       H  0.46400937  0.58347230  0.06983064    -0.06280
H1342       H  0.38537617  0.46024068  0.03635814    -0.06450
C1343       C  0.46448948  0.56972009  0.04839691     0.87100
C1344       C  0.45121968  0.50349291  0.96156696     0.87680
C1345       C  0.39893424  0.48190682  0.03587436     0.87730
H1346       H  0.50779517  0.49605846  0.11541346    -0.06430
O1347       O  0.54128259  0.49820708  0.05126558    -0.75460
Mg1348     Mg  0.41863971  0.53094135  0.08213917     1.58000
H1349       H  0.55222319  0.53860238  0.02734470    -0.06450
C1350       C  0.45820108  0.61118116  0.97082567     0.92720
O1351       O  0.37506269  0.57147114  0.02044471    -0.82690
C1352       C  0.35721138  0.55889698  0.04109202     0.92780
O1353       O  0.54126207  0.48904534  0.93830809    -0.82670
Mg1354     Mg  0.51930680  0.44955449  0.06350432     1.58180
O1355       O  0.43655327  0.60005856  0.98864789    -0.81010
O1356       O  0.45842578  0.40664875  0.10629028    -0.82700
C1357       C  0.57097204  0.48948658  0.84545330     0.03190
C1358       C  0.56495565  0.49793437  0.87662700    -0.12960
C1359       C  0.53465092  0.50682654  0.88612925     0.00690
C1360       C  0.50993051  0.50805298  0.86373583    -0.11490
C1361       C  0.51546026  0.49954226  0.83190171     0.03180
C1362       C  0.54634062  0.49042997  0.82317782    -0.10910
H1363       H  0.58389097  0.49681965  0.89390507     0.08770
H1364       H  0.48623259  0.51378246  0.87152091     0.06300
H1365       H  0.55159927  0.48493127  0.79877377     0.06150
C1366       C  0.40362109  0.60435582  0.79311371     0.03190
C1367       C  0.42585194  0.57969598  0.79298373    -0.12960
C1368       C  0.41722068  0.54884195  0.78405106     0.00690
C1369       C  0.38550229  0.54322558  0.77499995    -0.11490
C1370       C  0.36306517  0.56791079  0.77550826     0.03180
C1371       C  0.37249455  0.59828749  0.78420688    -0.10910
H1372       H  0.45021559  0.58489967  0.79886414     0.08770
H1373       H  0.37785196  0.51949770  0.76933116     0.06300
H1374       H  0.35521920  0.61723419  0.78474699     0.06150
C1375       C  0.46530921  0.47600992  0.76032164     0.03190
C1376       C  0.48890438  0.47627758  0.78385790    -0.12960
C1377       C  0.48932665  0.49927148  0.80780909     0.00690
C1378       C  0.46526178  0.52226646  0.80802099    -0.11490
C1379       C  0.44145604  0.52293267  0.78455199     0.03180
C1380       C  0.44165860  0.49950895  0.76101679    -0.10910
H1381       H  0.50726888  0.45850047  0.78341922     0.08770
H1382       H  0.46534460  0.54001585  0.82630921     0.06300
H1383       H  0.42346489  0.49976600  0.74303175     0.06150
C1384       C  0.47762018  0.39729401  0.71791968     0.03190
C1385       C  0.47653782  0.42051511  0.74154851    -0.12960
C1386       C  0.46581147  0.45137650  0.73492466     0.00690
C1387       C  0.45605921  0.45853593  0.70383901    -0.11490
C1388       C  0.45711933  0.43557501  0.67984545     0.03180
C1389       C  0.46783930  0.40497638  0.68713159    -0.10910
H1390       H  0.48289109  0.41402766  0.76553883     0.08770
H1391       H  0.44889966  0.48242875  0.69787741     0.06300
H1392       H  0.46859818  0.38715887  0.66886419     0.06150
C1393       C  0.22375613  0.60403182  0.46771583     0.03190
C1394       C  0.22434135  0.58041649  0.49140723    -0.12960
C1395       C  0.21738331  0.54852097  0.48393886     0.00690
C1396       C  0.21031620  0.54107601  0.45205639    -0.11490
C1397       C  0.21063479  0.56481834  0.42848585     0.03180
C1398       C  0.21712322  0.59586694  0.43668942    -0.10910
H1399       H  0.22867427  0.58714257  0.51568078     0.08770
H1400       H  0.20608274  0.51679336  0.44530363     0.06300
H1401       H  0.21702688  0.61411548  0.41848522     0.06150
C1402       C  0.11311035  0.43678976  0.52287728     0.03190
C1403       C  0.11939436  0.40543147  0.53106113    -0.12960
C1404       C  0.14984929  0.39590313  0.53979902     0.00690
C1405       C  0.17436572  0.41857523  0.54127221    -0.11490
C1406       C  0.16851341  0.45053913  0.53289378     0.03180
C1407       C  0.13761771  0.45915956  0.52377380    -0.10910
H1408       H  0.10055399  0.38807915  0.52989078     0.08770
H1409       H  0.19814031  0.41100936  0.54710591     0.06300
H1410       H  0.13227435  0.48364389  0.51829160     0.06150
C1411       C  0.32159167  0.50971755  0.59597231     0.03190
C1412       C  0.31526954  0.50144256  0.62726114    -0.12960
C1413       C  0.28484683  0.49265895  0.63669448     0.00690
C1414       C  0.26035951  0.49119064  0.61398198    -0.11490
C1415       C  0.26626653  0.49961904  0.58202745     0.03180
C1416       C  0.29716915  0.50881802  0.57350785    -0.10910
H1417       H  0.33406553  0.50261694  0.64466806     0.08770
H1418       H  0.23657982  0.48533415  0.62151003     0.06300
H1419       H  0.30258819  0.51435113  0.54905157     0.06150
C1420       C  0.24065199  0.49965538  0.55739321     0.03190
C1421       C  0.24003193  0.52343453  0.53369043    -0.12960
C1422       C  0.21743338  0.52322512  0.50921624     0.00690
C1423       C  0.19483404  0.49876297  0.50902281    -0.11490
C1424       C  0.19418699  0.47509830  0.53282612     0.03180
C1425       C  0.21741509  0.47572035  0.55676950    -0.10910
H1426       H  0.25749642  0.54212983  0.53410306     0.08770
H1427       H  0.17735794  0.49834834  0.49033617     0.06300
H1428       H  0.21739873  0.45755850  0.57495021     0.06150
O1429       O  0.22934917  0.52677592  0.83389774    -0.88290
C1430       C  0.14796204  0.51799545  0.78622303     0.87740
Mg1431     Mg  0.26807814  0.55130329  0.81310415     1.58150
O1432       O  0.19196640  0.44922592  0.79511363    -0.88020
O1433       O  0.21630382  0.48133419  0.85574920    -0.75350
C1434       C  0.27862493  0.49028518  0.67094051     0.92790
O1435       O  0.19768000  0.57279238  0.78318617    -0.75160
O1436       O  0.29106261  0.51109389  0.68853122    -0.82670
Mg1437     Mg  0.18609001  0.55126582  0.83235734     1.57960
C1438       C  0.20844833  0.38884684  0.72400501     0.92710
O1439       O  0.17522019  0.53220259  0.88348152    -0.80930
H1440       H  0.21406737  0.41754480  0.82270128    -0.06270
C1441       C  0.20109984  0.49618478  0.71220526     0.87650
O1442       O  0.29059144  0.50276166  0.80213336    -0.75440
O1443       O  0.16584298  0.51243394  0.80882007    -0.88200
O1444       O  0.18659464  0.39979153  0.74153103    -0.81010
C1445       C  0.10663568  0.44146153  0.79262193     0.92830
C1446       C  0.15738436  0.51053949  0.89466995     0.92680
Mg1447     Mg  0.24982853  0.44977714  0.73324937     1.57950
O1448       O  0.26097160  0.46852536  0.68221747    -0.80940
O1449       O  0.23782495  0.42847135  0.78230644    -0.75180
O1450       O  0.11728417  0.45900553  0.81448943    -0.81020
O1451       O  0.20661663  0.59401110  0.85428530    -0.82730
O1452       O  0.31845429  0.54358460  0.75075011    -0.81050
C1453       C  0.21429231  0.43109730  0.80092330     0.87120
O1454       O  0.27001500  0.48904236  0.75654342    -0.88190
O1455       O  0.20665558  0.47433949  0.73108821    -0.88300
O1456       O  0.21966587  0.51972129  0.70915232    -0.75350
Mg1457     Mg  0.16762758  0.46949118  0.83395628     1.57970
O1458       O  0.12470242  0.42867286  0.77245366    -0.82730
H1459       H  0.25663413  0.50522215  0.86618913    -0.06450
O1460       O  0.24348826  0.55222400  0.76989444    -0.88000
H1461       H  0.22087786  0.58366249  0.74243351    -0.06280
H1462       H  0.30218927  0.46241946  0.77902707    -0.06450
C1463       C  0.22097277  0.57017130  0.76425045     0.87100
C1464       C  0.23500834  0.50476436  0.85257257     0.87680
C1465       C  0.28825976  0.48385269  0.77892867     0.87730
H1466       H  0.17963291  0.49552228  0.69835119    -0.06430
O1467       O  0.14584857  0.49940606  0.76275204    -0.75460
Mg1468     Mg  0.26808760  0.53199466  0.73119224     1.58000
H1469       H  0.13425863  0.53957479  0.78612033    -0.06450
C1470       C  0.22651344  0.61223617  0.84106119     0.92720
O1471       O  0.31065915  0.57457226  0.79218842    -0.82690
C1472       C  0.32894677  0.56177318  0.77223600     0.92780
O1473       O  0.14477289  0.49000903  0.87690197    -0.82670
Mg1474     Mg  0.16762099  0.45063469  0.75174366     1.58180
O1475       O  0.24814355  0.60172199  0.82303907    -0.81010
O1476       O  0.22932495  0.40661926  0.71165208    -0.82700
C1477       C  0.15025455  0.74220037  0.38688052     0.03190
C1478       C  0.17473083  0.74091305  0.36415303    -0.12960
C1479       C  0.16875789  0.74935992  0.33221619     0.00690
C1480       C  0.13781885  0.75841706  0.32371587    -0.11490
C1481       C  0.11339416  0.75910476  0.34618037     0.03180
C1482       C  0.11976866  0.75081571  0.37746216    -0.10910
H1483       H  0.19854629  0.73516531  0.37165423     0.08770
H1484       H  0.13237665  0.76398046  0.29927029     0.06300
H1485       H  0.10096736  0.75185967  0.39487196     0.06150
C1486       C  0.21756540  0.77303599  0.25941032     0.03190
C1487       C  0.19495552  0.77324352  0.28388186    -0.12960
C1488       C  0.19433268  0.74944754  0.30756522     0.00690
C1489       C  0.21750732  0.72547441  0.30689923    -0.11490
C1490       C  0.24070583  0.72481576  0.28294918     0.03180
C1491       C  0.24013164  0.74852914  0.25919335    -0.10910
H1492       H  0.17748568  0.79193490  0.28431426     0.08770
H1493       H  0.21748677  0.70729200  0.32505986     0.06300
H1494       H  0.25762328  0.74809967  0.24052382     0.06150
C1495       C  0.21111346  0.85382332  0.21785931     0.03190
C1496       C  0.21798132  0.84568575  0.18689867    -0.12960
C1497       C  0.22470476  0.81469778  0.17875789     0.00690
C1498       C  0.22494125  0.79094149  0.20230330    -0.11490
C1499       C  0.21764836  0.79834917  0.23414544     0.03180
C1500       C  0.21050826  0.83022360  0.24156873    -0.10910
H1501       H  0.21807947  0.86392051  0.16867687     0.08770
H1502       H  0.22929288  0.76668077  0.19554767     0.06300
H1503       H  0.20601104  0.83694996  0.26581137     0.06150
C1504       C  0.28462700  0.64541633  0.29008790     0.03190
C1505       C  0.26023226  0.66821754  0.29144520    -0.12960
C1506       C  0.26625125  0.70013358  0.28299608     0.00690
C1507       C  0.29718842  0.70858985  0.27388958    -0.11490
C1508       C  0.32159411  0.68610683  0.27310250     0.03180
C1509       C  0.31514645  0.65477856  0.28135034    -0.10910
H1510       H  0.23641291  0.66078005  0.29725727     0.08770
H1511       H  0.30265325  0.73303854  0.26836932     0.06300
H1512       H  0.33389945  0.63732651  0.28023854     0.06150
O1513       O  0.16502657  0.47326161  0.27087428    -0.88290
C1514       C  0.21388987  0.48110958  0.35234075     0.87740
Mg1515     Mg  0.18515013  0.44949786  0.23157676     1.58150
O1516       O  0.20575427  0.55085543  0.30904663    -0.88020
O1517       O  0.14466143  0.51895790  0.28468172    -0.75350
C1518       C  0.32816183  0.50928444  0.22284828     0.92790
O1519       O  0.21518299  0.42596512  0.30184693    -0.75160
O1520       O  0.31015532  0.48890774  0.21031934    -0.82670
Mg1521     Mg  0.16678687  0.44816277  0.31404367     1.57960
C1522       C  0.27811040  0.61118019  0.29260382     0.92710
O1523       O  0.11644585  0.46778785  0.32568051    -0.80930
H1524       H  0.17856244  0.58320454  0.28747371    -0.06270
C1525       C  0.28702132  0.50280320  0.29991783     0.87650
O1526       O  0.19727201  0.49844322  0.20998286    -0.75440
O1527       O  0.19147238  0.48682859  0.33430068    -0.88200
O1528       O  0.26039323  0.60007491  0.31442766    -0.81010
C1529       C  0.20837743  0.55798103  0.39454935     0.92830
C1530       C  0.10595478  0.48922999  0.34392295     0.92680
Mg1531     Mg  0.26724049  0.55046061  0.25137756     1.57950
O1532       O  0.31751536  0.53106900  0.24050650    -0.80940
O1533       O  0.21868743  0.57238430  0.26342041    -0.75180
O1534       O  0.18664870  0.54018163  0.38384290    -0.81020
O1535       O  0.14356000  0.40559495  0.29331219    -0.82730
O1536       O  0.24834176  0.45746701  0.18163877    -0.81050
C1537       C  0.20010903  0.56946462  0.28697918     0.87120
O1538       O  0.24285764  0.51148899  0.23114566    -0.88190
O1539       O  0.26915689  0.52543466  0.29444421    -0.88300
O1540       O  0.28909211  0.47936691  0.28126831    -0.75350
Mg1541     Mg  0.16692978  0.53006557  0.33336807     1.57970
O1542       O  0.22869132  0.57087396  0.37651358    -0.82730
H1543       H  0.13311998  0.49606320  0.24419565    -0.06450
O1544       O  0.22830419  0.44741417  0.25624946    -0.88000
H1545       H  0.25523269  0.41484796  0.27781407    -0.06280
H1546       H  0.22097948  0.53890344  0.19915766    -0.06450
C1547       C  0.23379056  0.42875011  0.27830306     0.87100
C1548       C  0.14696094  0.49580218  0.26568637     0.87680
C1549       C  0.22068829  0.51718000  0.21279578     0.87730
H1550       H  0.30076837  0.50264521  0.32146892    -0.06430
O1551       O  0.23726630  0.49992743  0.35499125    -0.75460
Mg1552     Mg  0.26731444  0.46810690  0.23250079     1.58000
H1553       H  0.21383578  0.45931570  0.36586928    -0.06450
C1554       C  0.15594113  0.38774386  0.27271250     0.92720
O1555       O  0.20576187  0.42733507  0.18818656    -0.82690
C1556       C  0.22666381  0.43982009  0.17047805     0.92780
O1557       O  0.12423391  0.50926609  0.35659089    -0.82670
Mg1558     Mg  0.24909314  0.54901507  0.33347417     1.58180
O1559       O  0.17371352  0.39869193  0.25086199    -0.81010
O1560       O  0.29026203  0.59343074  0.27178542    -0.82700
O1561       O  0.93003825  0.78165969  0.24939438    -0.88290
C1562       C  0.95162130  0.68906621  0.24476189     0.87740
Mg1563     Mg  0.96418684  0.81780684  0.24581105     1.58150
O1564       O  0.93395192  0.71542987  0.32056803    -0.88020
O1565       O  0.89443653  0.76645432  0.28417660    -0.75350
C1566       C  0.08079401  0.76655941  0.33659661     0.92790
O1567       O  0.98494756  0.74723269  0.21022382    -0.75160
O1568       O  0.07630146  0.78586519  0.31388641    -0.82670
Mg1569     Mg  0.93093103  0.74567406  0.21407555     1.57960
C1570       C  0.98519555  0.69427949  0.39723665     0.92710
O1571       O  0.87685151  0.74524197  0.21454613    -0.80930
H1572       H  0.90394040  0.73634183  0.35037731    -0.06270
C1573       C  0.02624468  0.70976631  0.29804122     0.87650
O1574       O  0.96580627  0.82180164  0.29988947    -0.75440
O1575       O  0.93391900  0.71160340  0.25060770    -0.88200
O1576       O  0.97054773  0.68048893  0.37482086    -0.81010
C1577       C  0.91162783  0.63498904  0.30139447     0.92830
C1578       C  0.85383021  0.73146480  0.22833708     0.92680
Mg1579     Mg  0.00369759  0.75149437  0.35156681     1.57950
O1580       O  0.05802494  0.75233944  0.35044473    -0.80940
O1581       O  0.94960425  0.74991922  0.35586248    -0.75180
O1582       O  0.89808491  0.65781924  0.28691349    -0.81020
O1583       O  0.93075897  0.77980276  0.17317607    -0.82730
O1584       O  0.03520671  0.83970604  0.27849048    -0.81050
C1585       C  0.92816143  0.73353190  0.34272550     0.87120
O1586       O  0.00016651  0.78592688  0.31530345    -0.88190
O1587       O  0.00408433  0.71561878  0.31625672    -0.88300
O1588       O  0.03961601  0.73119247  0.28154246    -0.75350
Mg1589     Mg  0.89794610  0.71234153  0.28611092     1.57970
O1590       O  0.93409868  0.63949356  0.32090673    -0.82730
H1591       H  0.90040668  0.81199745  0.27007192    -0.06450
O1592       O  0.99991501  0.78212286  0.24538697    -0.88000
H1593       H  0.03037336  0.76146769  0.21586233    -0.06280
H1594       H  0.97962399  0.81577287  0.34546873    -0.06450
C1595       C  0.00606606  0.76402809  0.22332772     0.87100
C1596       C  0.90782495  0.78769456  0.26747898     0.87680
C1597       C  0.98224278  0.80828399  0.32122778     0.87730
H1598       H  0.03373349  0.68550590  0.29526116    -0.06430
O1599       O  0.96786197  0.67543637  0.26616286    -0.75460
Mg1600     Mg  0.03588024  0.78536871  0.27955290     1.58000
H1601       H  0.95421406  0.68150251  0.22054197    -0.06450
C1602       C  0.94968206  0.80272944  0.16870459     0.92720
O1603       O  0.99875040  0.85835785  0.24518660    -0.82690
C1604       C  0.02151474  0.86264676  0.26433533     0.92780
O1605       O  0.85785521  0.71235383  0.25131937    -0.82670
Mg1606     Mg  0.96947296  0.67957431  0.32020498     1.58180
O1607       O  0.96341860  0.81675346  0.19151340    -0.81010
O1608       O  0.00456101  0.71674336  0.39210852    -0.82700
O1609       O  0.75115589  0.53342260  0.24549604    -0.88290
C1610       C  0.75642724  0.44050029  0.26736273     0.87740
Mg1611     Mg  0.75419925  0.56922500  0.28036616     1.58150
O1612       O  0.68036840  0.46643950  0.24876100    -0.88020
O1613       O  0.71700838  0.51779234  0.20963396    -0.75350
C1614       C  0.66092630  0.51672004  0.39579931     0.92790
O1615       O  0.79008689  0.49887496  0.30042245    -0.75160
O1616       O  0.68346645  0.53615395  0.39121809    -0.82670
Mg1617     Mg  0.78691063  0.49771249  0.24615536     1.57960
C1618       C  0.60287492  0.44410451  0.29900596     0.92710
O1619       O  0.78697102  0.49739416  0.19135605    -0.80930
H1620       H  0.65085610  0.48780568  0.21846803    -0.06270
C1621       C  0.70152352  0.46039157  0.34155753     0.87650
O1622       O  0.69994902  0.57286353  0.28144283    -0.75440
O1623       O  0.75081337  0.46288973  0.24915081    -0.88200
O1624       O  0.62569698  0.43051943  0.28473412    -0.81010
C1625       C  0.70014835  0.38595141  0.22656787     0.92830
C1626       C  0.77344975  0.48298391  0.16863564     0.92680
Mg1627     Mg  0.64768525  0.50190849  0.31835270     1.57950
O1628       O  0.64749133  0.50228726  0.37305772    -0.80940
O1629       O  0.64456558  0.50073249  0.26413907    -0.75180
O1630       O  0.71480307  0.40873643  0.21309548    -0.81020
O1631       O  0.82714047  0.53283171  0.24621965    -0.82730
O1632       O  0.71984599  0.59092086  0.35153381    -0.81050
C1633       C  0.65816793  0.48464560  0.24278306     0.87120
O1634       O  0.68382920  0.53674752  0.31543337    -0.88190
O1635       O  0.68346000  0.46621216  0.31918210    -0.88300
O1636       O  0.71753773  0.48186992  0.35509835    -0.75350
Mg1637     Mg  0.71548204  0.46351671  0.21305714     1.57970
O1638       O  0.68067609  0.39052685  0.24904339    -0.82730
H1639       H  0.72992114  0.56355677  0.21566036    -0.06450
O1640       O  0.75430426  0.53314305  0.31594375    -0.88000
H1641       H  0.78383744  0.51166935  0.34614544    -0.06280
H1642       H  0.65405025  0.56677326  0.29405922    -0.06450
C1643       C  0.77649653  0.51489644  0.32184795     0.87100
C1644       C  0.73303230  0.53926475  0.22317609     0.87680
C1645       C  0.67825945  0.55921200  0.29730335     0.87730
H1646       H  0.70459733  0.43610910  0.34912062    -0.06430
O1647       O  0.73477682  0.42688103  0.28330235    -0.75460
Mg1648     Mg  0.71909579  0.53612632  0.35159741     1.58000
H1649       H  0.78065188  0.43299827  0.27062768    -0.06450
C1650       C  0.83180955  0.55527560  0.26556310     0.92720
O1651       O  0.75414627  0.60909318  0.31573179    -0.82690
C1652       C  0.73458578  0.61369465  0.33813202     0.92780
O1653       O  0.75093717  0.46354471  0.17329498    -0.82670
Mg1654     Mg  0.68052956  0.43037362  0.28436032     1.58180
O1655       O  0.80904064  0.56883924  0.27995421    -0.81010
O1656       O  0.60745769  0.46670096  0.31820646    -0.82700
C1657       C  0.82147583  0.73936346  0.21844976     0.03190
C1658       C  0.81534109  0.74757854  0.18708696    -0.12960
C1659       C  0.78499479  0.75659860  0.17758217     0.00690
C1660       C  0.76046472  0.75815561  0.20016098    -0.11490
C1661       C  0.76623625  0.74979232  0.23210005     0.03180
C1662       C  0.79705666  0.74064632  0.24081654    -0.10910
H1663       H  0.83418137  0.74624081  0.16974521     0.08770
H1664       H  0.73672783  0.76402263  0.19250400     0.06300
H1665       H  0.80242945  0.73535215  0.26533136     0.06150
C1666       C  0.69338252  0.77354385  0.28022874     0.03190
C1667       C  0.71676298  0.77295766  0.25644204    -0.12960
C1668       C  0.74048906  0.74962465  0.25645532     0.00690
C1669       C  0.74018412  0.72633026  0.28050818    -0.11490
C1670       C  0.71710974  0.72626083  0.30449242     0.03180
C1671       C  0.69393882  0.75010302  0.30406633    -0.10910
H1672       H  0.71666745  0.79082505  0.23798899     0.08770
H1673       H  0.75822084  0.70820577  0.28066641     0.06300
H1674       H  0.67614981  0.75041060  0.32242226     0.06150
C1675       C  0.61418471  0.81525951  0.29197327     0.03190
C1676       C  0.63766839  0.79176884  0.29107561    -0.12960
C1677       C  0.66846456  0.79866298  0.28053460     0.00690
C1678       C  0.67533512  0.82976508  0.27078635    -0.11490
C1679       C  0.65210678  0.85359721  0.27167657     0.03180
C1680       C  0.62154622  0.84615350  0.28224339    -0.10910
H1681       H  0.63146233  0.76769617  0.29740302     0.08770
H1682       H  0.69921601  0.83585356  0.26378925     0.06300
H1683       H  0.60352111  0.86435598  0.28288604     0.06150
C1684       C  0.72693272  0.64661878  0.34693370     0.03190
C1685       C  0.71697837  0.65416215  0.37764832    -0.12960
C1686       C  0.70715538  0.68502717  0.38482587     0.00690
C1687       C  0.70734508  0.70835265  0.36090109    -0.11490
C1688       C  0.71719746  0.70134236  0.32993022     0.03180
C1689       C  0.72698639  0.67028094  0.32336163    -0.10910
H1690       H  0.71689282  0.63605696  0.39592295     0.08770
H1691       H  0.70098728  0.73237705  0.36686521     0.06300
H1692       H  0.73339789  0.66400785  0.29943059     0.06150
O1693       O  0.50143421  0.21334295  0.81637874    -0.88290
C1694       C  0.40912746  0.23613854  0.82232651     0.87740
Mg1695     Mg  0.53780028  0.24776789  0.81915330     1.58150
O1696       O  0.43481012  0.21781585  0.74627202    -0.88020
O1697       O  0.48527889  0.17747788  0.78269462    -0.75350
C1698       C  0.48604746  0.36447108  0.72664040     0.92790
O1699       O  0.46807215  0.26826334  0.85566773    -0.75160
O1700       O  0.50563152  0.35990428  0.74908428    -0.82670
Mg1701     Mg  0.46610717  0.21408927  0.85242221     1.57960
C1702       C  0.41376129  0.26794835  0.66900478     0.92710
O1703       O  0.46482685  0.15936741  0.85231539    -0.80930
H1704       H  0.45569943  0.18733960  0.71698980    -0.06270
C1705       C  0.43001742  0.31031231  0.76711517     0.87650
O1706       O  0.54125631  0.24915090  0.76501073    -0.75440
O1707       O  0.43115210  0.21771624  0.81660835    -0.88200
O1708       O  0.39995153  0.25420508  0.69212466    -0.81010
C1709       C  0.35386673  0.19738716  0.76594110     0.92830
C1710       C  0.44994371  0.13683085  0.83898263     0.92680
Mg1711     Mg  0.47129583  0.28706547  0.71332078     1.57950
O1712       O  0.47179421  0.34166656  0.71313686    -0.80940
O1713       O  0.46948009  0.23286179  0.71044877    -0.75180
O1714       O  0.37656343  0.18343156  0.78026538    -0.81020
O1715       O  0.50168586  0.21353370  0.89228655    -0.82730
O1716       O  0.56022029  0.31906183  0.78511677    -0.81050
C1717       C  0.45295348  0.21167248  0.72413275     0.87120
O1718       O  0.50583926  0.28390016  0.74931636    -0.88190
O1719       O  0.43582243  0.28794392  0.74927789    -0.88300
O1720       O  0.45145167  0.32371203  0.78329235    -0.75350
Mg1721     Mg  0.43112706  0.18196358  0.78121872     1.57970
O1722       O  0.35855898  0.22005626  0.74663198    -0.82730
H1723       H  0.53111352  0.18304054  0.79569119    -0.06450
O1724       O  0.50227476  0.28371430  0.81958106    -0.88000
H1725       H  0.48152361  0.31390282  0.84925875    -0.06280
H1726       H  0.53532643  0.26261462  0.71926624    -0.06450
C1727       C  0.48430890  0.28963298  0.84192011     0.87100
C1728       C  0.50695631  0.19085793  0.79859203     0.87680
C1729       C  0.52793174  0.26559472  0.74353031     0.87730
H1730       H  0.40577573  0.31789775  0.76992070    -0.06430
O1731       O  0.39585110  0.25255315  0.80076806    -0.75460
Mg1732     Mg  0.50556170  0.31975671  0.78460645     1.58000
H1733       H  0.40169930  0.23919133  0.84657072    -0.06450
C1734       C  0.52428262  0.23291795  0.89665944     0.92720
O1735       O  0.57818989  0.28252425  0.81889197    -0.82690
C1736       C  0.58291164  0.30514568  0.79945868     0.92780
O1737       O  0.43031020  0.14178103  0.81667000    -0.82670
Mg1738     Mg  0.39943851  0.25396259  0.74653914     1.58180
O1739       O  0.53780062  0.24728357  0.87373904    -0.81010
O1740       O  0.43657322  0.28707152  0.67304055    -0.82700
C1741       C  0.72528957  0.14518026  0.84988966     0.03190
C1742       C  0.71628458  0.15469619  0.88021546    -0.12960
C1743       C  0.70841895  0.18612162  0.88624528     0.00690
C1744       C  0.70993625  0.20850500  0.86160861    -0.11490
C1745       C  0.71913077  0.19981927  0.83081875     0.03180
C1746       C  0.72718169  0.16785088  0.82526449    -0.10910
H1747       H  0.71466164  0.13729951  0.89912274     0.08770
H1748       H  0.70476686  0.23300973  0.86676933     0.06300
H1749       H  0.73300723  0.16024199  0.80157399     0.06150
C1750       C  0.69525441  0.27162432  0.78053219     0.03190
C1751       C  0.69562007  0.24788653  0.80406469    -0.12960
C1752       C  0.71906166  0.22414656  0.80475702     0.00690
C1753       C  0.74246542  0.22432483  0.78101938    -0.11490
C1754       C  0.74270354  0.24773244  0.75703113     0.03180
C1755       C  0.71893639  0.27114950  0.75708455    -0.10910
H1756       H  0.67758070  0.24799921  0.82218610     0.08770
H1757       H  0.76063470  0.20629167  0.78128931     0.06300
H1758       H  0.71895274  0.28913430  0.73874371     0.06150
C1759       C  0.78378725  0.25576720  0.67679217     0.03190
C1760       C  0.76018238  0.25567122  0.70022963    -0.12960
C1761       C  0.76779571  0.24795162  0.73197448     0.00690
C1762       C  0.79964069  0.24077856  0.73952316    -0.11490
C1763       C  0.82310056  0.24177918  0.71590631     0.03180
C1764       C  0.81482944  0.24903403  0.68495630    -0.10910
H1765       H  0.73586710  0.26009571  0.69347530     0.08770
H1766       H  0.80642605  0.23603214  0.76379600     0.06300
H1767       H  0.83298557  0.24947622  0.66679775     0.06150
C1768       C  0.61581375  0.31379294  0.79152959     0.03190
C1769       C  0.62338501  0.34464564  0.78190535    -0.12960
C1770       C  0.65406836  0.35203949  0.77172923     0.00690
C1771       C  0.67727902  0.32810508  0.77106890    -0.11490
C1772       C  0.67028931  0.29693579  0.78073724     0.03180
C1773       C  0.63930198  0.29019208  0.79097632    -0.10910
H1774       H  0.60539762  0.36289364  0.78234831     0.08770
H1775       H  0.70121987  0.33416499  0.76426819     0.06300
H1776       H  0.63296311  0.26616693  0.79733790     0.06150
C1777       C  0.32176703  0.06344059  0.54193943     0.03190
C1778       C  0.29734141  0.04097796  0.54121925    -0.12960
C1779       C  0.26639009  0.04948062  0.53219561     0.00690
C1780       C  0.26038683  0.08141392  0.52380251    -0.11490
C1781       C  0.28482920  0.10416780  0.52513858     0.03180
C1782       C  0.31534808  0.09475500  0.53373015    -0.10910
H1783       H  0.30279076  0.01652410  0.54673753     0.08770
H1784       H  0.23656124  0.08889107  0.51806323     0.06300
H1785       H  0.33413566  0.11217400  0.53479330     0.06150
C1786       C  0.21764718  0.97671408  0.55601195     0.03190
C1787       C  0.24021539  0.00121388  0.55615434    -0.12960
C1788       C  0.24081809  0.02483646  0.53231035     0.00690
C1789       C  0.21764804  0.02410676  0.50833386    -0.11490
C1790       C  0.19448036  0.00012552  0.50771308     0.03180
C1791       C  0.19507660  0.97641656  0.53149580    -0.10910
H1792       H  0.25770306  0.00170362  0.57482673     0.08770
H1793       H  0.21765634  0.04223449  0.49011832     0.06300
H1794       H  0.17762326  0.95771259  0.53110066     0.06150
C1795       C  0.22488913  0.93520395  0.63680264     0.03190
C1796       C  0.21816115  0.90417117  0.62866988    -0.12960
C1797       C  0.21122620  0.89599098  0.59769701     0.00690
C1798       C  0.21058194  0.91958168  0.57398610    -0.11490
C1799       C  0.21773542  0.95146009  0.58135589     0.03180
C1800       C  0.22507967  0.95891435  0.61318838    -0.10910
H1801       H  0.21830527  0.88594451  0.64689360     0.08770
H1802       H  0.20606029  0.91283155  0.54975492     0.06300
H1803       H  0.22944347  0.98318861  0.61988497     0.06150
C1804       C  0.15043839  0.00717345  0.42832552     0.03190
C1805       C  0.11999667  0.99843821  0.43772463    -0.12960
C1806       C  0.11364284  0.99011138  0.46898627     0.00690
C1807       C  0.13802639  0.99093093  0.49148137    -0.11490
C1808       C  0.16893947  0.00010679  0.48301279     0.03180
C1809       C  0.17490372  0.00856408  0.45106743    -0.10910
H1810       H  0.10120165  0.99734375  0.42030999     0.08770
H1811       H  0.13256013  0.98538539  0.51592461     0.06300
H1812       H  0.19869664  0.01441207  0.44357627     0.06150
C1813       C  0.78154848  0.60265131  0.52216513     0.03190
C1814       C  0.81228769  0.59543297  0.53231367    -0.12960
C1815       C  0.81988224  0.56471746  0.54240096     0.00690
C1816       C  0.79645884  0.54110842  0.54225428    -0.11490
C1817       C  0.76545458  0.54770528  0.53214273     0.03180
C1818       C  0.75834432  0.57873903  0.52213150    -0.10910
H1819       H  0.83028166  0.61368044  0.53235089     0.08770
H1820       H  0.80289773  0.51714798  0.54876017     0.06300
H1821       H  0.73435471  0.58473722  0.51545992     0.06150
C1822       C  0.71006072  0.39497215  0.59982787     0.03190
C1823       C  0.71907799  0.40411238  0.63023866    -0.12960
C1824       C  0.72759172  0.43531468  0.63642887     0.00690
C1825       C  0.72662944  0.45786551  0.61198486    -0.11490
C1826       C  0.71752296  0.44951036  0.58113466     0.03180
C1827       C  0.70891617  0.41774869  0.57531735    -0.10910
H1828       H  0.72017882  0.38660176  0.64908063     0.08770
H1829       H  0.73206523  0.48225682  0.61738455     0.06300
H1830       H  0.70314212  0.41033630  0.55155311     0.06150
C1831       C  0.69382452  0.49795309  0.50810164     0.03190
C1832       C  0.71705008  0.52182669  0.50862495    -0.12960
C1833       C  0.74074674  0.52223895  0.53196548     0.00690
C1834       C  0.74076047  0.49816506  0.55515486    -0.11490
C1835       C  0.71770640  0.47405597  0.55539688     0.03180
C1836       C  0.69452201  0.47411294  0.53156631    -0.10910
H1837       H  0.71666784  0.54020113  0.49070440     0.08770
H1838       H  0.75876427  0.49828920  0.57330507     0.06300
H1839       H  0.67680878  0.45565502  0.53144553     0.06150
C1840       C  0.65202125  0.50879538  0.42866782     0.03190
C1841       C  0.67551245  0.50836092  0.45221471    -0.12960
C1842       C  0.66872111  0.49815577  0.48319439     0.00690
C1843       C  0.63773247  0.48841007  0.49027235    -0.11490
C1844       C  0.61390340  0.48889310  0.46706389     0.03180
C1845       C  0.62122548  0.49905577  0.43625423    -0.10910
H1846       H  0.69951570  0.51477515  0.44596408     0.08770
H1847       H  0.63171106  0.48171908  0.51429844     0.06300
H1848       H  0.60299944  0.49942938  0.41823950     0.06150
O1849       O  0.72878253  0.22363562  0.48027167    -0.88290
C1850       C  0.64690274  0.23243109  0.52874232     0.87740
Mg1851     Mg  0.76807918  0.19962047  0.50037521     1.58150
O1852       O  0.69062488  0.30177016  0.52056310    -0.88020
O1853       O  0.71517331  0.26957251  0.45974641    -0.75350
C1854       C  0.77672120  0.25847505  0.64298311     0.92790
O1855       O  0.69767940  0.17658240  0.53083521    -0.75160
O1856       O  0.78949833  0.23841235  0.62487922    -0.82670
Mg1857     Mg  0.68556948  0.19890512  0.48235734     1.57960
C1858       C  0.70715418  0.36090736  0.59334514     0.92710
O1859       O  0.67416302  0.21841595  0.43206484    -0.80930
H1860       H  0.71238321  0.33414445  0.49349481    -0.06270
C1861       C  0.69945907  0.25278846  0.60180524     0.87650
O1862       O  0.78963820  0.24839533  0.51225938    -0.75440
O1863       O  0.66535377  0.23792569  0.50661161    -0.88200
O1864       O  0.68542362  0.35040531  0.57534050    -0.81010
C1865       C  0.60509681  0.31026598  0.52269984     0.92830
C1866       C  0.65613870  0.24004714  0.42125705     0.92680
Mg1867     Mg  0.74805047  0.30012714  0.58223971     1.57950
O1868       O  0.75873575  0.28023207  0.63246218    -0.80940
O1869       O  0.73623676  0.32273282  0.53371628    -0.75180
O1870       O  0.61589573  0.29227942  0.50118919    -0.81020
O1871       O  0.70609857  0.15605302  0.45943864    -0.82730
O1872       O  0.81803439  0.20715968  0.56334915    -0.81050
C1873       C  0.71276002  0.32020155  0.51502454     0.87120
O1874       O  0.76831449  0.26132230  0.55772686    -0.88190
O1875       O  0.70488992  0.27550053  0.58391356    -0.88300
O1876       O  0.71828582  0.22934318  0.60407104    -0.75350
Mg1877     Mg  0.66648582  0.28123581  0.48175661     1.57970
O1878       O  0.62310778  0.32290012  0.54304160    -0.82730
H1879       H  0.75553879  0.24624012  0.44827472    -0.06450
O1880       O  0.74343352  0.19747482  0.54354431    -0.88000
H1881       H  0.72192145  0.16508846  0.57077727    -0.06280
H1882       H  0.80029099  0.28869940  0.53588136    -0.06450
C1883       C  0.72136084  0.17902996  0.54925069     0.87100
C1884       C  0.73404623  0.24617384  0.46211049     0.87680
C1885       C  0.78671163  0.26704842  0.53560419     0.87730
H1886       H  0.67786086  0.25260944  0.61547575    -0.06430
O1887       O  0.64402216  0.25126767  0.55194645    -0.75460
Mg1888     Mg  0.76716590  0.21790807  0.58234062     1.58000
H1889       H  0.63318632  0.21086414  0.52856854    -0.06450
C1890       C  0.72701047  0.13818730  0.47160625     0.92720
O1891       O  0.81138511  0.17710022  0.52101173    -0.82690
C1892       C  0.82915238  0.18949121  0.54173676     0.92780
O1893       O  0.64355908  0.26046406  0.43914831    -0.82670
Mg1894     Mg  0.66595904  0.29991470  0.56379045     1.58180
O1895       O  0.74895878  0.14906252  0.48910347    -0.81010
O1896       O  0.72767989  0.34270983  0.60561278    -0.82700
O1897       O  0.00363464  0.28209630  0.24892807    -0.88290
C1898       C  0.98104218  0.28810036  0.34127035     0.87740
Mg1899     Mg  0.96916440  0.28562346  0.21264674     1.58150
O1900       O  0.99923066  0.21196678  0.31644164    -0.88020
O1901       O  0.03914421  0.24766097  0.26519054    -0.75350
C1902       C  0.85307719  0.19310649  0.26482663     0.92790
O1903       O  0.94887813  0.32194127  0.28230353    -0.75160
O1904       O  0.85754754  0.21568918  0.24524779    -0.82670
Mg1905     Mg  0.00303618  0.31783278  0.28431608     1.57960
C1906       C  0.94930371  0.13519737  0.33817153     0.92710
O1907       O  0.05741366  0.31690170  0.28550808    -0.80930
H1908       H  0.02979367  0.18238894  0.29601218    -0.06270
C1909       C  0.90687371  0.23362871  0.32099358     0.87650
O1910       O  0.96761666  0.23146071  0.20918735    -0.75440
O1911       O  0.99931218  0.28200942  0.31923212    -0.88200
O1912       O  0.96320346  0.15802857  0.35200564    -0.81010
C1913       C  0.02018895  0.23226310  0.39696641     0.92830
C1914       C  0.08013901  0.30330853  0.30004487     0.92680
Mg1915     Mg  0.93028946  0.17974096  0.28012622     1.57950
O1916       O  0.87587772  0.17965217  0.27933028    -0.80940
O1917       O  0.98436417  0.17630744  0.28197167    -0.75180
O1918       O  0.03408692  0.24604375  0.37389729    -0.81020
O1919       O  0.00420177  0.35785571  0.24904174    -0.82730
O1920       O  0.89803615  0.25196757  0.19056268    -0.81050
C1921       C  0.00545251  0.18975042  0.29855143     0.87120
O1922       O  0.93347528  0.21581411  0.24519741    -0.88190
O1923       O  0.92922822  0.21555936  0.31545941    -0.88300
O1924       O  0.89353855  0.24984453  0.29934685    -0.75350
Mg1925     Mg  0.03512623  0.24634614  0.31942231     1.57970
O1926       O  0.99747252  0.21304010  0.39279590    -0.82730
H1927       H  0.03350843  0.26075564  0.21928393    -0.06450
O1928       O  0.93332582  0.28614194  0.24825653    -0.88000
H1929       H  0.90322797  0.31615146  0.26877340    -0.06280
H1930       H  0.95439735  0.18574048  0.21552506    -0.06450
C1931       C  0.92746645  0.30850631  0.26609329     0.87100
C1932       C  0.02586558  0.26384326  0.24345607     0.87680
C1933       C  0.95148656  0.20998957  0.22288396     0.87730
H1934       H  0.89922469  0.23659077  0.34518072    -0.06430
O1935       O  0.96458365  0.26683522  0.35490217    -0.75460
Mg1936     Mg  0.89745313  0.25122111  0.24522525     1.58000
H1937       H  0.97812681  0.31243058  0.34835715    -0.06450
C1938       C  0.98488250  0.36286356  0.22651822     0.92720
O1939       O  0.93412681  0.28593715  0.17228062    -0.82690
C1940       C  0.91163631  0.26646704  0.16773924     0.92780
O1941       O  0.07556677  0.28080820  0.31959030    -0.82670
Mg1942     Mg  0.96327322  0.21263694  0.35195515     1.58180
O1943       O  0.97015752  0.34037631  0.21291525    -0.81010
O1944       O  0.93004980  0.13971531  0.31547580    -0.82700
C1945       C  0.97691094  0.35449275  0.59640104     0.03190
C1946       C  0.97644247  0.33005914  0.57409273    -0.12960
C1947       C  0.96745355  0.29909356  0.58274976     0.00690
C1948       C  0.95888698  0.29312890  0.61460849    -0.11490
C1949       C  0.95998395  0.31762268  0.63711203     0.03180
C1950       C  0.96851747  0.34810790  0.62760454    -0.10910
H1951       H  0.98211814  0.33550025  0.54967473     0.08770
H1952       H  0.95318326  0.26930208  0.62225240     0.06300
H1953       H  0.96939995  0.36690636  0.64489277     0.06150
C1954       C  0.94315522  0.22682410  0.53430063     0.03190
C1955       C  0.94366424  0.25023912  0.55784187    -0.12960
C1956       C  0.96767803  0.27343404  0.55842109     0.00690
C1957       C  0.99155623  0.27276195  0.53495626    -0.11490
C1958       C  0.99138783  0.25000206  0.51082930     0.03180
C1959       C  0.96704654  0.22722335  0.51097075    -0.10910
H1960       H  0.92534122  0.25044225  0.57571394     0.08770
H1961       H  0.01013334  0.29035375  0.53520345     0.06300
H1962       H  0.96669096  0.20950840  0.49267471     0.06150
C1963       C  0.02979237  0.24008192  0.42950681     0.03190
C1964       C  0.00735164  0.24119482  0.45398793    -0.12960
C1965       C  0.01590443  0.25017602  0.48492530     0.00690
C1966       C  0.04788743  0.25840598  0.49065741    -0.11490
C1967       C  0.07055395  0.25698400  0.46611343     0.03180
C1968       C  0.06109826  0.24819397  0.43575322    -0.10910
H1969       H  0.98290694  0.23593061  0.44853677     0.08770
H1970       H  0.05552586  0.26412039  0.51437440     0.06300
H1971       H  0.07848203  0.24695391  0.41694521     0.06150
C1972       C  0.86339804  0.18313078  0.53951024     0.03190
C1973       C  0.88631301  0.20737620  0.54186209    -0.12960
C1974       C  0.91831722  0.20138366  0.53393039     0.00690
C1975       C  0.92665430  0.17062927  0.52435070    -0.11490
C1976       C  0.90398801  0.14653318  0.52231689     0.03180
C1977       C  0.87267833  0.15287766  0.53020977    -0.10910
H1978       H  0.87892143  0.23106297  0.54800480     0.08770
H1979       H  0.95111761  0.16501487  0.51930639     0.06300
H1980       H  0.85516789  0.13424062  0.52836191     0.06150
O1981       O  0.98045186  0.19894225  0.80834636    -0.88290
C1982       C  0.89802380  0.24545886  0.79979241     0.87740
Mg1983     Mg  0.01894965  0.21939371  0.83293676     1.58150
O1984       O  0.94215404  0.23890412  0.73089324    -0.88020
O1985       O  0.96783758  0.17820613  0.76258341    -0.75350
C1986       C  0.02645745  0.36212504  0.77338057     0.92790
O1987       O  0.94787826  0.24827640  0.85477252    -0.75160
O1988       O  0.03937428  0.34396304  0.79359910    -0.82670
Mg1989     Mg  0.93718973  0.19956028  0.83279233     1.57960
C1990       C  0.95737743  0.31136549  0.67129025     0.92710
O1991       O  0.92734969  0.14885340  0.81362197    -0.80930
H1992       H  0.96415834  0.21241585  0.69861735    -0.06270
C1993       C  0.94986582  0.32013505  0.77907013     0.87650
O1994       O  0.04112726  0.23161292  0.78438502    -0.75440
O1995       O  0.91658853  0.22355639  0.79406070    -0.88200
O1996       O  0.93590057  0.29324725  0.68223242    -0.81010
C1997       C  0.85698083  0.23986646  0.72288108     0.92830
C1998       C  0.90978968  0.13796198  0.79181273     0.92680
Mg1999     Mg  0.99864897  0.30124084  0.73203950     1.57950
O2000       O  0.00867524  0.35159219  0.75158895    -0.80940
O2001       O  0.98759992  0.25273957  0.70984569    -0.75180
O2002       O  0.86804579  0.21791377  0.74039496    -0.81020
O2003       O  0.95799463  0.17714364  0.87528290    -0.82730
O2004       O  0.06834875  0.28215442  0.82537731    -0.81050
C2005       C  0.96431263  0.23380544  0.71244520     0.87120
O2006       O  0.01923199  0.27686571  0.77101244    -0.88190
O2007       O  0.95559584  0.30213140  0.75679988    -0.88300
O2008       O  0.96852847  0.32268335  0.80255631    -0.75350
Mg2009     Mg  0.91882174  0.19936635  0.75092702     1.57970
O2010       O  0.87459010  0.26080774  0.71043582    -0.82730
H2011       H  0.00821486  0.16762127  0.78646155    -0.06450
O2012       O  0.99367430  0.26203782  0.83440646    -0.88000
H2013       H  0.97103780  0.28874390  0.86607109    -0.06280
H2014       H  0.05173925  0.25572282  0.74400522    -0.06450
C2015       C  0.97117122  0.26724334  0.85241433     0.87100
C2016       C  0.98640041  0.18094582  0.78612483     0.87680
C2017       C  0.03799157  0.25505775  0.76554978     0.87730
H2018       H  0.92816454  0.33364280  0.77882016    -0.06430
O2019       O  0.89521328  0.26924764  0.78137030    -0.75460
Mg2020     Mg  0.01740834  0.30110636  0.81425216     1.58000
H2021       H  0.88430281  0.24465614  0.82134990    -0.06450
C2022       C  0.97767725  0.19036924  0.89352997     0.92720
O2023       O  0.06127795  0.24017889  0.85635524    -0.82690
C2024       C  0.07924727  0.26058412  0.84355703     0.92780
O2025       O  0.89717248  0.15587288  0.77117215    -0.82670
Mg2026     Mg  0.91695280  0.28170743  0.73279201     1.58180
O2027       O  0.99925301  0.20857162  0.88308073    -0.81010
O2028       O  0.97770998  0.32417607  0.68918329    -0.82700
C2029       C  0.07078662  0.31431549  0.02189606     0.03190
C2030       C  0.06321631  0.34478944  0.03247866    -0.12960
C2031       C  0.03232287  0.35197125  0.04226241     0.00690
C2032       C  0.00895419  0.32829334  0.04140391    -0.11490
C2033       C  0.01592310  0.29754103  0.03091003     0.03180
C2034       C  0.04702605  0.29096345  0.02109569    -0.10910
H2035       H  0.08133450  0.36289474  0.03308756     0.08770
H2036       H  0.98491254  0.33430753  0.04778185     0.06300
H2037       H  0.05320990  0.26717013  0.01412514     0.06150
C2038       C  0.96745105  0.22467746  0.00740413     0.03190
C2039       C  0.99050677  0.24877611  0.00728527    -0.12960
C2040       C  0.99094503  0.27230547  0.03076582     0.00690
C2041       C  0.96748728  0.27156146  0.05441021    -0.11490
C2042       C  0.94400150  0.24796071  0.05508588     0.03180
C2043       C  0.94439697  0.22455784  0.03149608    -0.10910
H2044       H  0.00824381  0.24912343  0.98884835     0.08770
H2045       H  0.96751031  0.28951213  0.07247148     0.06300
H2046       H  0.92664319  0.20613751  0.03182430     0.06150
C2047       C  0.96006383  0.14448856  0.96663527     0.03190
C2048       C  0.96738292  0.15265108  0.93570485    -0.12960
C2049       C  0.97476645  0.18352429  0.92738639     0.00690
C2050       C  0.97518469  0.20713611  0.95066686    -0.11490
C2051       C  0.96745759  0.19962345  0.98244773     0.03180
C2052       C  0.95971851  0.16788208  0.99012464    -0.10910
H2053       H  0.96735720  0.13451586  0.91766023     0.08770
H2054       H  0.97999777  0.23137067  0.94374801     0.06300
H2055       H  0.95495300  0.16107539  0.01440042     0.06150
C2056       C  0.90270758  0.25865678  0.13492563     0.03190
C2057       C  0.87185222  0.24897137  0.12768300    -0.12960
C2058       C  0.86426555  0.23877314  0.09712855     0.00690
C2059       C  0.88794893  0.23824162  0.07370817    -0.11490
C2060       C  0.91905963  0.24798667  0.08034702     0.03180
C2061       C  0.92606275  0.25816968  0.11120948    -0.10910
H2062       H  0.85375448  0.24936595  0.14582232     0.08770
H2063       H  0.88170026  0.23152655  0.04985462     0.06300
H2064       H  0.95009325  0.26454361  0.11727385     0.06150
C2065       C  0.36361753  0.24293331  0.59976850     0.03190
C2066       C  0.37288966  0.25184064  0.63016986    -0.12960
C2067       C  0.40415167  0.26005795  0.63652697     0.00690
C2068       C  0.42669892  0.25890245  0.61219886    -0.11490
C2069       C  0.41832660  0.24981254  0.58130424     0.03180
C2070       C  0.38642086  0.24149157  0.57537228    -0.10910
H2071       H  0.35541972  0.25309655  0.64889521     0.08770
H2072       H  0.45112070  0.26419948  0.61773783     0.06300
H2073       H  0.37895772  0.23568376  0.55162204     0.06150
C2074       C  0.53061979  0.35360351  0.54221297     0.03190
C2075       C  0.56178191  0.34713677  0.53391077    -0.12960
C2076       C  0.57094724  0.31666840  0.52530861     0.00690
C2077       C  0.54811500  0.29230612  0.52412742    -0.11490
C2078       C  0.51623888  0.29839782  0.53245839     0.03180
C2079       C  0.50797565  0.32936887  0.54137445    -0.10910
H2080       H  0.57929288  0.36584416  0.53494183     0.08770
H2081       H  0.55552784  0.26849215  0.51851395     0.06300
H2082       H  0.48359921  0.33503988  0.54674507     0.06150
C2083       C  0.45756158  0.14644968  0.46729067     0.03190
C2084       C  0.46764728  0.15407945  0.43657842    -0.12960
C2085       C  0.47752951  0.18490564  0.42914411     0.00690
C2086       C  0.47742866  0.20812976  0.45281581    -0.11490
C2087       C  0.46726936  0.20107149  0.48375006     0.03180
C2088       C  0.45725627  0.17004870  0.49061359    -0.10910
H2089       H  0.46779110  0.13606236  0.41849209     0.08770
H2090       H  0.48403292  0.23215160  0.44670221     0.06300
H2091       H  0.45049078  0.16381490  0.51456122     0.06150
C2092       C  0.44303796  0.24984867  0.55570689     0.03190
C2093       C  0.46724937  0.27282232  0.55554277    -0.12960
C2094       C  0.49146806  0.27289362  0.53259012     0.00690
C2095       C  0.49132312  0.24908965  0.50954726    -0.11490
C2096       C  0.46723495  0.22597815  0.50876296     0.03180
C2097       C  0.44316428  0.22675226  0.53191652    -0.10910
H2098       H  0.46725492  0.29087116  0.57351615     0.08770
H2099       H  0.50993071  0.24871719  0.49199380     0.06300
H2100       H  0.42457639  0.20917793  0.53157590     0.06150
C2101       C  0.40148769  0.49292305  0.17708684     0.03190
C2102       C  0.42497823  0.49276803  0.20064243    -0.12960
C2103       C  0.41725876  0.50023822  0.23231885     0.00690
C2104       C  0.38541529  0.50753492  0.23965378    -0.11490
C2105       C  0.36205093  0.50689080  0.21594687     0.03180
C2106       C  0.37041907  0.49978117  0.18507317    -0.10910
H2107       H  0.44930331  0.48834286  0.19400088     0.08770
H2108       H  0.37852622  0.51213987  0.26385029     0.06300
H2109       H  0.35234636  0.49961363  0.16683631     0.06150
C2110       C  0.56994913  0.43515981  0.29126422     0.03190
C2111       C  0.56247609  0.40436365  0.28159547    -0.12960
C2112       C  0.53169800  0.39693171  0.27163779     0.00690
C2113       C  0.50836768  0.42068199  0.27133257    -0.11490
C2114       C  0.51522507  0.45168276  0.28103523     0.03180
C2115       C  0.54622532  0.45854475  0.29101766    -0.10910
H2116       H  0.58057064  0.38621723  0.28183158     0.08770
H2117       H  0.48439240  0.41456132  0.26479487     0.06300
H2118       H  0.55235618  0.48251701  0.29741231     0.06150
C2119       C  0.47713913  0.56446961  0.38489638     0.03190
C2120       C  0.47634606  0.54115913  0.36129425    -0.12960
C2121       C  0.46596820  0.54828144  0.33040161     0.00690
C2122       C  0.45632631  0.57946083  0.32364632    -0.11490
C2123       C  0.45723521  0.60308382  0.34696824     0.03180
C2124       C  0.46759246  0.59537996  0.37753761    -0.10910
H2125       H  0.48267782  0.51707900  0.36745113     0.08770
H2126       H  0.44941468  0.58580295  0.29977135     0.06300
H2127       H  0.46821890  0.61342365  0.39558934     0.06150
C2128       C  0.46575489  0.52342568  0.30522033     0.03190
C2129       C  0.48943385  0.49999126  0.30459053    -0.12960
C2130       C  0.49002748  0.47666807  0.28099591     0.00690
C2131       C  0.46637311  0.47721163  0.25750417    -0.11490
C2132       C  0.44225475  0.50020738  0.25751143     0.03180
C2133       C  0.44217144  0.52310355  0.28159677    -0.10910
H2134       H  0.50757331  0.49990673  0.32261086     0.08770
H2135       H  0.46666599  0.45959436  0.23908877     0.06300
H2136       H  0.42369944  0.54080567  0.28185478     0.06150
C2137       C  0.45599251  0.81523109  0.63568738     0.03190
C2138       C  0.46686346  0.84574447  0.62831089    -0.12960
C2139       C  0.47712225  0.85311256  0.59760635     0.00690
C2140       C  0.47642584  0.82965361  0.57422015    -0.11490
C2141       C  0.46562725  0.79888878  0.58105313     0.03180
C2142       C  0.45540236  0.79203306  0.61199927    -0.10910
H2143       H  0.46734983  0.86372203  0.64643066     0.08770
H2144       H  0.48311288  0.83586196  0.55024895     0.06300
H2145       H  0.44825132  0.76817747  0.61812960     0.06150
C2146       C  0.56991243  0.75973822  0.46791650     0.03190
C2147       C  0.54607880  0.75983879  0.49121468    -0.12960
C2148       C  0.51499800  0.75011433  0.48421978     0.00690
C2149       C  0.50829344  0.74028652  0.45321206    -0.11490
C2150       C  0.53182932  0.74013627  0.42969467     0.03180
C2151       C  0.56257110  0.74988874  0.43720696    -0.10910
H2152       H  0.55218481  0.76631069  0.51516873     0.08770
H2153       H  0.48432110  0.73398845  0.44684976     0.06300
H2154       H  0.58076565  0.74981742  0.41915665     0.06150
C2155       C  0.48960023  0.75026599  0.50904518     0.03190
C2156       C  0.48924624  0.77341057  0.53276653    -0.12960
C2157       C  0.46538343  0.77400579  0.55603641     0.00690
C2158       C  0.44155681  0.75066186  0.55541118    -0.11490
C2159       C  0.44151740  0.72692246  0.53227411     0.03180
C2160       C  0.46554828  0.72723329  0.50911793    -0.10910
H2161       H  0.50766565  0.79113128  0.53309969     0.08770
H2162       H  0.42310681  0.75078120  0.57312935     0.06300
H2163       H  0.46565272  0.70922646  0.49110881     0.06150
C2164       C  0.36278807  0.68221228  0.54022293     0.03190
C2165       C  0.38533915  0.70679729  0.54131875    -0.12960
C2166       C  0.41715325  0.70113431  0.53260027     0.00690
C2167       C  0.42576173  0.67035120  0.52345902    -0.11490
C2168       C  0.40343934  0.64586684  0.52253059     0.03180
C2169       C  0.37221597  0.65191545  0.53115046    -0.10910
H2170       H  0.37771456  0.73049303  0.54714361     0.08770
H2171       H  0.45018397  0.66502596  0.51794491     0.06300
H2172       H  0.35489617  0.63303906  0.53008685     0.06150
O2173       O  0.43496676  0.71730567  0.24608352    -0.88290
C2174       C  0.42906434  0.80977655  0.26665475     0.87740
Mg2175     Mg  0.43142566  0.68135804  0.28079814     1.58150
O2176       O  0.50526459  0.78388559  0.24947730    -0.88020
O2177       O  0.46967984  0.73249375  0.21039969    -0.75350
C2178       C  0.52312663  0.73252466  0.39683283     0.92790
O2179       O  0.39548288  0.75169892  0.30043274    -0.75160
O2180       O  0.50087519  0.71285259  0.39214742    -0.82670
Mg2181     Mg  0.39922217  0.75303823  0.24624774     1.57960
C2182       C  0.58145869  0.80628524  0.30004946     0.92710
O2183       O  0.40003285  0.75330881  0.19193749    -0.80930
H2184       H  0.53532070  0.76310468  0.21962977    -0.06270
C2185       C  0.48308891  0.78930579  0.34204738     0.87650
O2186       O  0.48562460  0.67735841  0.28248344    -0.75440
O2187       O  0.43523651  0.78740154  0.24895726    -0.88200
O2188       O  0.55868353  0.81976484  0.28551227    -0.81010
C2189       C  0.48518124  0.86409529  0.22621964     0.92830
C2190       C  0.41387774  0.76702467  0.16882390     0.92680
Mg2191     Mg  0.53712645  0.74819395  0.31951449     1.57950
O2192       O  0.53658726  0.74735187  0.37414676    -0.80940
O2193       O  0.54109033  0.74968877  0.26540903    -0.75180
O2194       O  0.47118407  0.84116886  0.21268967    -0.81020
O2195       O  0.35867134  0.71856412  0.24633324    -0.82730
O2196       O  0.46478243  0.65861706  0.35179214    -0.81050
C2197       C  0.52768249  0.76593593  0.24383707     0.87120
O2198       O  0.50125462  0.71324228  0.31637787    -0.88190
O2199       O  0.50112649  0.78367214  0.31969692    -0.88300
O2200       O  0.46713987  0.76767461  0.35573459    -0.75350
Mg2201     Mg  0.47101206  0.78665333  0.21322355     1.57970
O2202       O  0.50439463  0.85975126  0.24901773    -0.82730
H2203       H  0.45610276  0.68691374  0.21689760    -0.06450
O2204       O  0.43093752  0.71701979  0.31625446    -0.88000
H2205       H  0.40133315  0.73828967  0.34621587    -0.06280
H2206       H  0.53134892  0.68335088  0.29568714    -0.06450
C2207       C  0.40880364  0.73531027  0.32197526     0.87100
C2208       C  0.45320120  0.71123856  0.22400900     0.87680
C2209       C  0.50709828  0.69090174  0.29851638     0.87730
H2210       H  0.48003517  0.81351002  0.34949189    -0.06430
O2211       O  0.45021285  0.82335963  0.28302950    -0.75460
Mg2212     Mg  0.46565281  0.71343619  0.35217670     1.58000
H2213       H  0.40473425  0.81717522  0.26919336    -0.06450
C2214       C  0.35422018  0.69581267  0.26563261     0.92720
O2215       O  0.43045771  0.64124267  0.31590080    -0.82690
C2216       C  0.44995488  0.63615943  0.33824369     0.92780
O2217       O  0.43658221  0.78627201  0.17281623    -0.82670
Mg2218     Mg  0.50426670  0.81979621  0.28469757     1.58180
O2219       O  0.37704031  0.68209698  0.27988885    -0.81010
O2220       O  0.57697907  0.78370047  0.31961237    -0.82700
O2221       O  0.22867616  0.02598910  0.33354522    -0.88290
C2222       C  0.14668331  0.01607223  0.28612234     0.87740
Mg2223     Mg  0.26754290  0.05051659  0.31291688     1.58150
O2224       O  0.19148608  0.94772334  0.29529596    -0.88020
O2225       O  0.21558334  0.98062909  0.35557567    -0.75350
C2226       C  0.27730801  0.98968520  0.17048210     0.92790
O2227       O  0.19682022  0.07174591  0.28268820    -0.75160
O2228       O  0.28983035  0.01051702  0.18799166    -0.82670
Mg2229     Mg  0.18522202  0.05019044  0.33175883     1.57960
C2230       C  0.20870225  0.88773916  0.22462125     0.92710
O2231       O  0.17445733  0.03126094  0.38283278    -0.80930
H2232       H  0.21441943  0.91671041  0.32296231    -0.06270
C2233       C  0.19993089  0.99524301  0.21268435     0.87650
O2234       O  0.29007064  0.00208988  0.30179067    -0.75440
O2235       O  0.16505406  0.01091197  0.30840335    -0.88200
O2236       O  0.18684050  0.89837054  0.24226273    -0.81010
C2237       C  0.10599183  0.93792065  0.29287163     0.92830
C2238       C  0.15664097  0.00962493  0.39407731     0.92680
Mg2239     Mg  0.24918045  0.94916552  0.23313981     1.57950
O2240       O  0.25975618  0.96791848  0.18191277    -0.80940
O2241       O  0.23774480  0.92789220  0.28237941    -0.75180
O2242       O  0.11647520  0.95612900  0.31437688    -0.81020
O2243       O  0.20548167  0.09331263  0.35353940    -0.82730
O2244       O  0.31768044  0.04323403  0.25005349    -0.81050
C2245       C  0.21424420  0.93013101  0.30110254     0.87120
O2246       O  0.26935579  0.98851087  0.25624445    -0.88190
O2247       O  0.20569238  0.97329415  0.23140522    -0.88300
O2248       O  0.21850184  0.01877751  0.20944251    -0.75350
Mg2249     Mg  0.16696385  0.96805393  0.33385172     1.57970
O2250       O  0.12429580  0.92528065  0.27283647    -0.82730
H2251       H  0.25585603  0.00461387  0.36603452    -0.06450
O2252       O  0.24294747  0.05171221  0.26966962    -0.88000
H2253       H  0.22025608  0.08308220  0.24221120    -0.06280
H2254       H  0.30175263  0.96192487  0.27844305    -0.06450
C2255       C  0.22032067  0.06949975  0.26397201     0.87100
C2256       C  0.23428663  0.00406294  0.35233455     0.87680
C2257       C  0.28774116  0.98330374  0.27850258     0.87730
H2258       H  0.17830261  0.99464532  0.19907880    -0.06430
O2259       O  0.14427322  0.99714734  0.26294723    -0.75460
Mg2260     Mg  0.26718203  0.03138930  0.23087076     1.58000
H2261       H  0.13271429  0.03747950  0.28609102    -0.06450
C2262       C  0.22595742  0.11141846  0.34103364     0.92720
O2263       O  0.31025580  0.07364683  0.29203654    -0.82690
C2264       C  0.32834897  0.06116742  0.27168453     0.92780
O2265       O  0.14397015  0.98902547  0.37642064    -0.82670
Mg2266     Mg  0.16692266  0.94866954  0.25206988     1.58180
O2267       O  0.24780880  0.10088016  0.32328529    -0.81010
O2268       O  0.22896417  0.90583801  0.21174150    -0.82700
C2269       C  0.53176289  0.00952008  0.38509182     0.03190
C2270       C  0.50817241  0.00946158  0.36161086    -0.12960
C2271       C  0.51479934  0.99968978  0.33056841     0.00690
C2272       C  0.54584828  0.98996435  0.32349323    -0.11490
C2273       C  0.56972537  0.98994290  0.34673611     0.03180
C2274       C  0.56247637  0.99972736  0.37749370    -0.10910
H2275       H  0.48422096  0.01579129  0.36802017     0.08770
H2276       H  0.55189601  0.98356393  0.29950510     0.06300
H2277       H  0.58071116  0.99972133  0.39550313     0.06150
C2278       C  0.46522375  0.97592991  0.25867112     0.03190
C2279       C  0.48905495  0.97647703  0.28197767    -0.12960
C2280       C  0.48937640  0.99956510  0.30576480     0.00690
C2281       C  0.46529792  0.02257088  0.30573869    -0.11490
C2282       C  0.44128325  0.02289524  0.28256377     0.03180
C2283       C  0.44137983  0.99923930  0.25934461    -0.10910
H2284       H  0.50747578  0.95875718  0.28161599     0.08770
H2285       H  0.46536735  0.04054444  0.32378297     0.06300
H2286       H  0.42294913  0.99915070  0.24160389     0.06150
C2287       C  0.36248244  0.06742452  0.27461995     0.03190
C2288       C  0.37184161  0.09774839  0.28356940    -0.12960
C2289       C  0.40302910  0.10386793  0.29216284     0.00690
C2290       C  0.42541480  0.07943215  0.29134463    -0.11490
C2291       C  0.41686873  0.04861798  0.28226984     0.03180
C2292       C  0.38506422  0.04286910  0.27358543    -0.10910
H2293       H  0.35448350  0.11659823  0.28457063     0.08770
H2294       H  0.44982345  0.08481472  0.29686441     0.06300
H2295       H  0.37747949  0.01914441  0.26782551     0.06150
C2296       C  0.47683607  0.89682056  0.21713007     0.03190
C2297       C  0.47616830  0.92030331  0.24048239    -0.12960
C2298       C  0.46547218  0.95108118  0.23361607     0.00690
C2299       C  0.45530779  0.95795058  0.20264426    -0.11490
C2300       C  0.45586885  0.93474319  0.17893710     0.03180
C2301       C  0.46665172  0.90419119  0.18637570    -0.10910
H2302       H  0.48278508  0.91410239  0.26447566     0.08770
H2303       H  0.44820109  0.98182279  0.19652499     0.06300
H2304       H  0.46711281  0.88618997  0.16828090     0.06150
C2305       C  0.97831322  0.06420437  0.38482254     0.03190
C2306       C  0.96764310  0.09478470  0.37754030    -0.12960
C2307       C  0.95771042  0.10239487  0.34682695     0.00690
C2308       C  0.95854517  0.07910412  0.32324294    -0.11490
C2309       C  0.96921504  0.04823310  0.32988811     0.03180
C2310       C  0.97913409  0.04114323  0.36093259    -0.10910
H2311       H  0.96703471  0.11265032  0.39576873     0.08770
H2312       H  0.95205014  0.08552789  0.29927443     0.06300
H2313       H  0.98624172  0.01724887  0.36695262     0.06150
C2314       C  0.99344108  0.97659237  0.28037940     0.03190
C2315       C  0.99326025  0.00006148  0.30385885    -0.12960
C2316       C  0.96959812  0.02354466  0.30455257     0.00690
C2317       C  0.94593561  0.02320997  0.28107404    -0.11490
C2318       C  0.94550617  0.00016820  0.25716140     0.03180
C2319       C  0.96960394  0.97720913  0.25694595    -0.10910
H2320       H  0.01148983  0.99985745  0.32180604     0.08770
H2321       H  0.92753985  0.04095776  0.28152299     0.06300
H2322       H  0.96951062  0.95943666  0.23868095     0.06150
C2323       C  0.86367483  0.00920980  0.21968691     0.03190
C2324       C  0.86968657  0.00074302  0.18853231    -0.12960
C2325       C  0.90004453  0.99211902  0.17898046     0.00690
C2326       C  0.92484190  0.99119727  0.20129770    -0.11490
C2327       C  0.91932479  0.99973943  0.23312307     0.03180
C2328       C  0.88839321  0.00861066  0.24189942    -0.10910
H2329       H  0.85070455  0.00165518  0.17129482     0.08770
H2330       H  0.94856876  0.98565831  0.19346043     0.06300
H2331       H  0.88318166  0.01418200  0.26629670     0.06150
C2332       C  0.07185479  0.93165951  0.28957618     0.03190
C2333       C  0.06244447  0.90126736  0.28078618    -0.12960
C2334       C  0.03131650  0.89518467  0.27177679     0.00690
C2335       C  0.00909066  0.91984447  0.27191096    -0.11490
C2336       C  0.01769111  0.95069148  0.28090467     0.03180
C2337       C  0.04938581  0.95631562  0.29004542    -0.10910
H2338       H  0.07972844  0.88233113  0.28024826     0.08770
H2339       H  0.98473916  0.91463439  0.26598902     0.06300
H2340       H  0.05700861  0.98004497  0.29574183     0.06150
O2341       O  0.75377996  0.96697485  0.24980809    -0.88290
C2342       C  0.73310066  0.05971702  0.24434385     0.87740
Mg2343     Mg  0.71894665  0.93130030  0.24608829     1.58150
O2344       O  0.75020532  0.03247683  0.32035211    -0.88020
O2345       O  0.78955598  0.98164814  0.28443014    -0.75350
C2346       C  0.60260157  0.98226330  0.33779716     0.92790
O2347       O  0.69956210  0.00213263  0.21024770    -0.75160
O2348       O  0.60719947  0.96316859  0.31514039    -0.82670
Mg2349     Mg  0.75373546  0.00311454  0.21419439     1.57960
C2350       C  0.69981391  0.05352123  0.39675745     0.92710
O2351       O  0.80817186  0.00328808  0.21538039    -0.80930
H2352       H  0.78006408  0.01079011  0.35006080    -0.06270
C2353       C  0.65770395  0.03899527  0.29827333     0.87650
O2354       O  0.71713411  0.92664678  0.30017813    -0.75440
O2355       O  0.75087614  0.03718445  0.25034559    -0.88200
O2356       O  0.71393416  0.06725967  0.37383946    -0.81010
C2357       C  0.77318800  0.11312973  0.30130693     0.92830
C2358       C  0.83116386  0.01693459  0.22929891     0.92680
Mg2359     Mg  0.68013380  0.99659678  0.35199964     1.57950
O2360       O  0.62539436  0.99639206  0.35157438    -0.80940
O2361       O  0.73428922  0.99760158  0.35570439    -0.75180
O2362       O  0.78683139  0.09045812  0.28698774    -0.81020
O2363       O  0.75369092  0.96889832  0.17340036    -0.82730
O2364       O  0.64745961  0.90907217  0.27903269    -0.81050
C2365       C  0.75584773  0.01398880  0.34250488     0.87120
O2366       O  0.68304670  0.96246419  0.31580520    -0.88190
O2367       O  0.67999637  0.03272426  0.31625987    -0.88300
O2368       O  0.64400162  0.01788134  0.28196881    -0.75350
Mg2369     Mg  0.78649985  0.03583526  0.28624770     1.57970
O2370       O  0.75034687  0.10839856  0.32035887    -0.82730
H2371       H  0.78314353  0.93622909  0.27073224    -0.06450
O2372       O  0.68353155  0.96729802  0.24559645    -0.88000
H2373       H  0.65373839  0.98906257  0.21586673    -0.06280
H2374       H  0.70356670  0.93202351  0.34583179    -0.06450
C2375       C  0.67793944  0.98582049  0.22345520     0.87100
C2376       C  0.77592614  0.96061513  0.26795587     0.87680
C2377       C  0.70088143  0.93992523  0.32160839     0.87730
H2378       H  0.65038359  0.06335321  0.29552130    -0.06430
O2379       O  0.71665814  0.07302355  0.26560024    -0.75460
Mg2380     Mg  0.64736666  0.96371209  0.28011414     1.58000
H2381       H  0.73057503  0.06752572  0.22007414    -0.06450
C2382       C  0.73451749  0.94618990  0.16889600     0.92720
O2383       O  0.68360201  0.89153053  0.24504450    -0.82690
C2384       C  0.66103015  0.88658292  0.26433590     0.92780
O2385       O  0.82695927  0.03600221  0.25198985    -0.82670
Mg2386     Mg  0.71489409  0.06849673  0.31964129     1.58180
O2387       O  0.72015966  0.93247271  0.19169709    -0.81010
O2388       O  0.68049411  0.03089485  0.39251939    -0.82700
O2389       O  0.20575098  0.19872527  0.50683696    -0.88290
C2390       C  0.28785399  0.24634439  0.51555637     0.87740
Mg2391     Mg  0.16634577  0.21888460  0.48260199     1.58150
O2392       O  0.24373385  0.23760706  0.58441289    -0.88020
O2393       O  0.21946303  0.17696257  0.55213759    -0.75350
C2394       C  0.15611896  0.36163643  0.54230092     0.92790
O2395       O  0.23679803  0.24946402  0.46065581    -0.75160
O2396       O  0.14337885  0.34387545  0.52183921    -0.82670
Mg2397     Mg  0.24898008  0.20050793  0.48220853     1.57960
C2398       C  0.22650426  0.30914385  0.64362566     0.92710
O2399       O  0.26039382  0.14954575  0.50120443    -0.80930
H2400       H  0.22117385  0.21021413  0.61593879    -0.06270
C2401       C  0.23403469  0.31985776  0.53612560     0.87650
O2402       O  0.14429721  0.23013290  0.53118409    -0.75440
O2403       O  0.26960167  0.22406121  0.52110088    -0.88200
O2404       O  0.24835974  0.29140027  0.63307756    -0.81010
C2405       C  0.32941979  0.24016860  0.59333681     0.92830
C2406       C  0.27844306  0.13840734  0.52272105     0.92680
Mg2407     Mg  0.18550811  0.29956520  0.58288543     1.57950
O2408       O  0.17420777  0.35050305  0.56378154    -0.80940
O2409       O  0.19760196  0.25059911  0.60454250    -0.75180
O2410       O  0.31869909  0.21839136  0.57559779    -0.81020
O2411       O  0.22830152  0.17842227  0.43947207    -0.82730
O2412       O  0.11566932  0.28155859  0.48986261    -0.81050
C2413       C  0.22114882  0.23192345  0.60227464     0.87120
O2414       O  0.16490040  0.27591805  0.54408748    -0.88190
O2415       O  0.22872938  0.30121771  0.55825281    -0.88300
O2416       O  0.21502321  0.32292071  0.51291411    -0.75350
Mg2417     Mg  0.26814101  0.19887539  0.56414592     1.57970
O2418       O  0.31131835  0.26068183  0.60559031    -0.82730
H2419       H  0.17896821  0.16621232  0.52866271    -0.06450
O2420       O  0.19060194  0.26232990  0.48074252    -0.88000
H2421       H  0.21311928  0.28977000  0.44922730    -0.06280
H2422       H  0.13297992  0.25376802  0.57128467    -0.06450
C2423       C  0.21318616  0.26805925  0.46288922     0.87100
C2424       C  0.20048108  0.18001070  0.52890557     0.87680
C2425       C  0.14671799  0.25360088  0.54972996     0.87730
H2426       H  0.25559275  0.33358666  0.53630619    -0.06430
O2427       O  0.29026913  0.26976934  0.53416149    -0.75460
Mg2428     Mg  0.16626418  0.30107160  0.50103576     1.58000
H2429       H  0.30167339  0.24617717  0.49405420    -0.06450
C2430       C  0.20772542  0.19094784  0.42150252     0.92720
O2431       O  0.12283312  0.23918333  0.45994032    -0.82690
C2432       C  0.10481223  0.25972143  0.47228947     0.92780
O2433       O  0.29107265  0.15613321  0.54328654    -0.82670
Mg2434     Mg  0.26801194  0.28103478  0.58267806     1.58180
O2435       O  0.18580366  0.20852885  0.43217756    -0.81010
O2436       O  0.20615634  0.32181890  0.62551670    -0.82700
C2437       C  0.11343659  0.25773353  0.84974917     0.03190
C2438       C  0.13593466  0.25862551  0.82509831    -0.12960
C2439       C  0.16770488  0.24967481  0.83080064     0.00690
C2440       C  0.17632399  0.24045830  0.86174852    -0.11490
C2441       C  0.15405906  0.24010509  0.88642562     0.03180
C2442       C  0.12289713  0.24889425  0.88021779    -0.10910
H2443       H  0.12830368  0.26445277  0.80131077     0.08770
H2444       H  0.20068876  0.23452408  0.86698565     0.06300
H2445       H  0.10559415  0.24809642  0.89914058     0.06150
C2446       C  0.21561449  0.27364574  0.75742802     0.03190
C2447       C  0.23878002  0.24962396  0.75742481    -0.12960
C2448       C  0.23922047  0.22553332  0.78073377     0.00690
C2449       C  0.21538849  0.22552630  0.80400768    -0.11490
C2450       C  0.19191246  0.24932983  0.80479974     0.03180
C2451       C  0.19233641  0.27321035  0.78132364    -0.10910
H2452       H  0.25678724  0.24987758  0.73924288     0.08770
H2453       H  0.21540973  0.20710483  0.82190937     0.06300
H2454       H  0.17457804  0.29163891  0.78174659     0.06150
C2455       C  0.22392663  0.31594239  0.67749920     0.03190
C2456       C  0.21740935  0.34695941  0.68582775    -0.12960
C2457       C  0.21027519  0.35492753  0.71683201     0.00690
C2458       C  0.20909127  0.33107586  0.74028371    -0.11490
C2459       C  0.21602462  0.29923528  0.73257496     0.03180
C2460       C  0.22365929  0.29203850  0.70081736    -0.10910
H2461       H  0.21790937  0.36532367  0.66774888     0.08770
H2462       H  0.20436723  0.33753468  0.76456047     0.06300
H2463       H  0.22787583  0.26778586  0.69393176     0.06150
C2464       C  0.28436961  0.14690604  0.78971008     0.03190
C2465       C  0.31489508  0.15653196  0.78159614    -0.12960
C2466       C  0.32112001  0.18776474  0.77302245     0.00690
C2467       C  0.29635574  0.20998281  0.77282167    -0.11490
C2468       C  0.26526877  0.20123608  0.78133983     0.03180
C2469       C  0.25958478  0.16931829  0.79009441    -0.10910
H2470       H  0.33387788  0.13928715  0.78118565     0.08770
H2471       H  0.30163507  0.23440102  0.76701394     0.06300
H2472       H  0.23577225  0.16152892  0.79544414     0.06150
C2473       C  0.20855129  0.39671937  0.09556059     0.03190
C2474       C  0.21609504  0.40310877  0.12692654    -0.12960
C2475       C  0.22464640  0.43357246  0.13623067     0.00690
C2476       C  0.22657935  0.45803663  0.11331298    -0.11490
C2477       C  0.21888619  0.45210403  0.08127157     0.03180
C2478       C  0.20996624  0.42112813  0.07289452    -0.10910
H2479       H  0.21455361  0.38432338  0.14446895     0.08770
H2480       H  0.23222805  0.48182702  0.12073455     0.06300
H2481       H  0.20498456  0.41562964  0.04842652     0.06150
C2482       C  0.32335744  0.56599249  0.03891933     0.03190
C2483       C  0.29978937  0.54248569  0.03958416    -0.12960
C2484       C  0.26803566  0.55019331  0.03212769     0.00690
C2485       C  0.26060277  0.58200892  0.02450855    -0.11490
C2486       C  0.28431854  0.60536613  0.02482699     0.03180
C2487       C  0.31526413  0.59701137  0.03180334    -0.10910
H2488       H  0.30642347  0.51816880  0.04432262     0.08770
H2489       H  0.23634397  0.58885201  0.01990708     0.06300
H2490       H  0.33349763  0.61509478  0.03169401     0.06150
C2491       C  0.19549858  0.50151622  0.00840298     0.03190
C2492       C  0.19583926  0.47821302  0.03248023    -0.12960
C2493       C  0.21901256  0.47786116  0.05649565     0.00690
C2494       C  0.24233860  0.50164184  0.05615173    -0.11490
C2495       C  0.24285765  0.52521613  0.03228548     0.03180
C2496       C  0.21930235  0.52484010  0.00856044    -0.10910
H2497       H  0.17781238  0.46007603  0.03254408     0.08770
H2498       H  0.26028488  0.50170625  0.07440791     0.06300
H2499       H  0.21943891  0.54286591  0.99024560     0.06150
C2500       C  0.15115815  0.50794446  0.92897084     0.03190
C2501       C  0.12082597  0.49872528  0.93840907    -0.12960
C2502       C  0.11454223  0.49049326  0.96973773     0.00690
C2503       C  0.13889711  0.49198329  0.99225378    -0.11490
C2504       C  0.16976122  0.50147134  0.98376219     0.03180
C2505       C  0.17559370  0.50978731  0.95174025    -0.10910
H2506       H  0.10207028  0.49720743  0.92099161     0.08770
H2507       H  0.13341339  0.48660305  0.01672175     0.06300
H2508       H  0.19931085  0.51585621  0.94419099     0.06150
O2509       O  0.25131460  0.21663872  0.07063859    -0.88290
C2510       C  0.25716339  0.30902164  0.04730504     0.87740
Mg2511     Mg  0.25418867  0.18038786  0.03653737     1.58150
O2512       O  0.18084620  0.28362374  0.06549870    -0.88020
O2513       O  0.21683150  0.23263061  0.10596060    -0.75350
C2514       C  0.16370485  0.23257119  0.91910862     0.92790
O2515       O  0.29109062  0.25024314  0.01555552    -0.75160
O2516       O  0.18635312  0.21331158  0.92371481    -0.82670
Mg2517     Mg  0.28726512  0.25206682  0.06965011     1.57960
C2518       C  0.10384465  0.30556100  0.01438837     0.92710
O2519       O  0.28688125  0.25312564  0.12432537    -0.80930
H2520       H  0.15080507  0.26312721  0.09587502    -0.06270
C2521       C  0.20303162  0.28888684  0.97320929     0.87650
O2522       O  0.19997056  0.17736105  0.03500809    -0.75440
O2523       O  0.25131502  0.28689600  0.06577939    -0.88200
O2524       O  0.12652539  0.31925847  0.02878975    -0.81010
C2525       C  0.20094351  0.36413628  0.08615759     0.92830
C2526       C  0.27323562  0.26771579  0.14684462     0.92680
Mg2527     Mg  0.14884527  0.24771562  0.99623895     1.57950
O2528       O  0.14991482  0.24668192  0.94183795    -0.80940
O2529       O  0.14479757  0.24953177  0.05036131    -0.75180
O2530       O  0.21503100  0.34123717  0.10004812    -0.81020
O2531       O  0.32714808  0.21663236  0.07034135    -0.82730
O2532       O  0.22089587  0.15879887  0.96550347    -0.81050
C2533       C  0.15838421  0.26578750  0.07158687     0.87120
O2534       O  0.18475448  0.21299626  0.00006333    -0.88190
O2535       O  0.18465515  0.28318909  0.99535254    -0.88300
O2536       O  0.21946942  0.26738777  0.96024126    -0.75350
Mg2537     Mg  0.21558482  0.28675529  0.10148275     1.57970
O2538       O  0.18157542  0.35980206  0.06360765    -0.82730
H2539       H  0.23004229  0.18684927  0.10078221    -0.06450
O2540       O  0.25501659  0.21613228  0.00054768    -0.88000
H2541       H  0.28504145  0.23652517  0.97009759    -0.06280
H2542       H  0.15436465  0.18364092  0.02149484    -0.06450
C2543       C  0.27749870  0.23391707  0.99440190     0.87100
C2544       C  0.23309136  0.21104306  0.09292503     0.87680
C2545       C  0.17869733  0.19089288  0.01849221     0.87730
H2546       H  0.20609047  0.31311268  0.96545812    -0.06430
O2547       O  0.23570990  0.32253312  0.03099085    -0.75460
Mg2548     Mg  0.22068432  0.21324207  0.96442126     1.58000
H2549       H  0.28144537  0.31637995  0.04414723    -0.06450
C2550       C  0.33173177  0.19407216  0.05110564     0.92720
O2551       O  0.25370577  0.13981258  0.00228389    -0.82690
C2552       C  0.23457224  0.13571550  0.97947492     0.92780
O2553       O  0.25066598  0.28704694  0.14185803    -0.82670
Mg2554     Mg  0.18143856  0.31933322  0.02941963     1.58180
O2555       O  0.30892885  0.18037807  0.03692765    -0.81010
O2556       O  0.10869292  0.28297471  0.99524752    -0.82700
O2557       O  0.24397377  0.73736765  0.08502684    -0.88290
C2558       C  0.23513098  0.81919748  0.03712859     0.87740
Mg2559     Mg  0.26790701  0.69902596  0.06420639     1.58150
O2560       O  0.16629566  0.77501926  0.04494085    -0.88020
O2561       O  0.19806262  0.74991472  0.10571153    -0.75350
C2562       C  0.20808423  0.69198398  0.92093778     0.92790
O2563       O  0.29082946  0.76958299  0.03501580    -0.75160
O2564       O  0.22893285  0.67957006  0.93871119    -0.82670
Mg2565     Mg  0.26868705  0.78044473  0.08369457     1.57960
C2566       C  0.10592438  0.75968977  0.97363922     0.92710
O2567       O  0.24909253  0.79037790  0.13418934    -0.80930
H2568       H  0.13438484  0.75280553  0.07210252    -0.06270
C2569       C  0.21364001  0.76821801  0.96310909     0.87650
O2570       O  0.21920525  0.67738632  0.05222677    -0.75440
O2571       O  0.22970497  0.80078951  0.05943449    -0.88200
O2572       O  0.11672409  0.78119663  0.99156465    -0.81010
C2573       C  0.15785720  0.86029752  0.04320021     0.92830
C2574       C  0.22716386  0.80794359  0.14485456     0.92680
Mg2575     Mg  0.16695464  0.71889288  0.98273705     1.57950
O2576       O  0.18600769  0.70915277  0.93194653    -0.80940
O2577       O  0.14519498  0.72960908  0.03160218    -0.75180
O2578       O  0.17598686  0.84954093  0.06475048    -0.81020
O2579       O  0.31165647  0.75958511  0.10638778    -0.82730
O2580       O  0.25972733  0.65028396  0.00081346    -0.81050
C2581       C  0.14797227  0.75279021  0.05045100     0.87120
O2582       O  0.20603399  0.69863957  0.00650452    -0.88190
O2583       O  0.19142422  0.76208808  0.98125893    -0.88300
O2584       O  0.23744101  0.74997375  0.96054932    -0.75350
Mg2585     Mg  0.18647792  0.79875676  0.08391333     1.57970
O2586       O  0.14485762  0.84233290  0.02317069    -0.82730
H2587       H  0.22204988  0.70969555  0.11676813    -0.06450
O2588       O  0.26933583  0.72446570  0.02133996    -0.88000
H2589       H  0.30167872  0.74643191  0.99449489    -0.06280
H2590       H  0.17899532  0.66640382  0.02842012    -0.06450
C2591       C  0.28792707  0.74651835  0.01604142     0.87100
C2592       C  0.22169580  0.73144196  0.10316677     0.87680
C2593       C  0.20054141  0.68014851  0.02871753     0.87730
H2594       H  0.21311859  0.79000307  0.94957621    -0.06430
O2595       O  0.21625248  0.82205086  0.01378399    -0.75460
Mg2596     Mg  0.24920443  0.70108504  0.98201014     1.58000
H2597       H  0.25673207  0.83286047  0.03724295    -0.06450
C2598       C  0.32959667  0.73931925  0.09353131     0.92720
O2599       O  0.29028113  0.65695551  0.04297531    -0.82690
C2600       C  0.27748608  0.63926869  0.02254187     0.92780
O2601       O  0.20681616  0.82072416  0.12679294    -0.82670
Mg2602     Mg  0.16743325  0.80033858  0.00211216     1.58180
O2603       O  0.31865091  0.71799899  0.07541863    -0.81010
O2604       O  0.12392672  0.73950230  0.96078285    -0.82700
C2605       C  0.32011667  0.00899444  0.09537982     0.03190
C2606       C  0.31380210  0.00091780  0.12670902    -0.12960
C2607       C  0.28344405  0.99195722  0.13617757     0.00690
C2608       C  0.25898749  0.99014216  0.11342402    -0.11490
C2609       C  0.26488175  0.99828893  0.08136361     0.03180
C2610       C  0.29578993  0.00758962  0.07284555    -0.10910
H2611       H  0.33256738  0.00240013  0.14412463     0.08770
H2612       H  0.23523532  0.98424171  0.12099676     0.06300
H2613       H  0.30132306  0.01287755  0.04836776     0.06150
C2614       C  0.19192040  0.97449825  0.03273134     0.03190
C2615       C  0.21541531  0.97492761  0.05650897    -0.12960
C2616       C  0.23918130  0.99826275  0.05670601     0.00690
C2617       C  0.23887538  0.02156044  0.03263730    -0.11490
C2618       C  0.21570051  0.02196606  0.00861692     0.03180
C2619       C  0.19240388  0.99813086  0.00889687    -0.10910
H2620       H  0.21528383  0.95691445  0.07483696     0.08770
H2621       H  0.25694165  0.03965695  0.03260484     0.06300
H2622       H  0.17447329  0.99806122  0.99062759     0.06150
C2623       C  0.11162640  0.93326540  0.02615097     0.03190
C2624       C  0.11986148  0.90234035  0.03354846    -0.12960
C2625       C  0.15085520  0.89417078  0.04059995     0.00690
C2626       C  0.17445023  0.91764753  0.04071258    -0.11490
C2627       C  0.16686961  0.94938258  0.03286539     0.03180
C2628       C  0.13508961  0.95688046  0.02531637    -0.10910
H2629       H  0.10170008  0.88418685  0.03382228     0.08770
H2630       H  0.19873664  0.91095014  0.04537928     0.06300
H2631       H  0.12834265  0.98113404  0.02041196     0.06150
C2632       C  0.22666672  0.10322172  0.96988577     0.03190
C2633       C  0.21895650  0.09703952  0.93849985    -0.12960
C2634       C  0.21004787  0.06670109  0.92906833     0.00690
C2635       C  0.20799564  0.04213626  0.95188439    -0.11490
C2636       C  0.21584651  0.04784574  0.98393742     0.03180
C2637       C  0.22502939  0.07872156  0.99243214    -0.10910
H2638       H  0.22062987  0.11588678  0.92103806     0.08770
H2639       H  0.20214340  0.01842813  0.94436291     0.06300
H2640       H  0.23007254  0.08408314  0.01691721     0.06150
O2641       O  0.43042054  0.46677822  0.56594498    -0.88290
C2642       C  0.45309748  0.55889710  0.57084555     0.87740
Mg2643     Mg  0.46469231  0.43080689  0.56935104     1.58150
O2644       O  0.43515534  0.53338144  0.49486923    -0.88020
O2645       O  0.39522401  0.48222229  0.53087472    -0.75350
C2646       C  0.58100938  0.48165840  0.47625656     0.92790
O2647       O  0.48539060  0.50055774  0.60539756    -0.75160
O2648       O  0.57619731  0.46251224  0.49911387    -0.82670
Mg2649     Mg  0.43125891  0.50236308  0.60139688     1.57960
C2650       C  0.48519831  0.55545900  0.41771040     0.92710
O2651       O  0.37697880  0.50331063  0.60040242    -0.80930
H2652       H  0.40452768  0.51345678  0.46501493    -0.06270
C2653       C  0.52750826  0.53881160  0.51618846     0.87650
O2654       O  0.46603117  0.42739152  0.51509103    -0.75440
O2655       O  0.43481346  0.53677940  0.56505688    -0.88200
O2656       O  0.47111197  0.56916558  0.44052751    -0.81010
C2657       C  0.41327222  0.61350917  0.51465530     0.92830
C2658       C  0.35416845  0.51729518  0.58638861     0.92680
Mg2659     Mg  0.50398610  0.49757375  0.46252320     1.57950
O2660       O  0.55844901  0.49635246  0.46258013    -0.80940
O2661       O  0.44995583  0.49947975  0.45874008    -0.75180
O2662       O  0.39967636  0.59041752  0.52859338    -0.81020
O2663       O  0.43049976  0.46738202  0.64193745    -0.82730
O2664       O  0.53489740  0.40896150  0.53540730    -0.81050
C2665       C  0.42887133  0.51583614  0.47242295     0.87120
O2666       O  0.50035349  0.46308039  0.49896563    -0.88190
O2667       O  0.50517265  0.53315477  0.49813522    -0.88300
O2668       O  0.54065598  0.51729808  0.53273085    -0.75350
Mg2669     Mg  0.39910846  0.53627545  0.52919062     1.57970
O2670       O  0.43599724  0.60953260  0.49539526    -0.82730
H2671       H  0.40075983  0.43663936  0.54502636    -0.06450
O2672       O  0.50046754  0.46656520  0.56941172    -0.88000
H2673       H  0.53093820  0.48686733  0.59919063    -0.06280
H2674       H  0.47887510  0.43347229  0.46922412    -0.06450
C2675       C  0.50662102  0.48430559  0.59175933     0.87100
C2676       C  0.40831133  0.46089307  0.54769109     0.87680
C2677       C  0.48207597  0.44089981  0.49341512     0.87730
H2678       H  0.53527610  0.56299524  0.51886407    -0.06430
O2679       O  0.46944411  0.57237692  0.54939164    -0.75460
Mg2680     Mg  0.53622823  0.46324111  0.53447882     1.58000
H2681       H  0.45613209  0.56619562  0.59509727    -0.06450
C2682       C  0.44969218  0.44469338  0.64682499     0.92720
O2683       O  0.49915266  0.39051784  0.56963109    -0.82690
C2684       C  0.52133208  0.38613572  0.54987359     0.92780
O2685       O  0.35859995  0.53641716  0.56350608    -0.82670
Mg2686     Mg  0.47075604  0.56923125  0.49519959     1.58180
O2687       O  0.46410840  0.43101866  0.62417891    -0.81010
O2688       O  0.50443678  0.53273742  0.42225228    -0.82700
loop_ 
_geom_bond_atom_site_label_1 
_geom_bond_atom_site_label_2 
_geom_bond_distance 
_geom_bond_site_symmetry_2 
_ccdc_geom_bond_type 
C1            C2   1.405       .  A
C1            C6   1.394       .  A
C1           C53   1.473       .  S
C2            C3   1.411       .  A
C2            H7   1.083       .  S
C3            C4   1.416       .  A
C3           C10   1.503       .  S
C4            C5   1.412       .  A
C4            H8   1.083       .  S
C5            C6   1.397       .  A
C5          C884   1.474       .  S
C6            H9   1.085       .  S
C10          C11   1.413       .  A
C10          C15   1.410       .  A
C11          C12   1.409       .  A
C11          H16   1.082       .  S
C12          C13   1.412       .  A
C12          C23   1.503       .  S
C13          C14   1.409       .  A
C13          H17   1.082       .  S
C14          C15   1.413       .  A
C14          C30   1.502       .  S
C15          H18   1.083       .  S
C19          C20   1.397       .  A
C19          C24   1.406       .  A
C19         C461   1.477       .  S
C20          C21   1.400       .  A
C20          H25   1.085       .  S
C21          C22   1.411       .  A
C21         C968   1.476       .  S
C22          C23   1.416       .  A
C22          H26   1.083       .  S
C23          C24   1.411       .  A
C24          H27   1.083       .  S
C28          C29   1.411       .  A
C28          C33   1.395       .  A
C28        C1026   1.471       .  S
C29          C30   1.416       .  A
C29          H34   1.083       .  S
C30          C31   1.410       .  A
C31          C32   1.407       .  A
C31          H35   1.083       .  S
C32          C33   1.392       .  A
C32         C257   1.471       .  S
C33          H36   1.085       .  S
O37         Mg39   2.107       .  S
O37         Mg45   2.136       .  S
O37          C72   1.239       .  S
C38          H77   1.081       .  S
C38          O51   1.239       .  S
C38          O75   1.271       .  A
Mg39         O68   2.140       .  S
Mg39         O83   2.296       .  S
Mg39         O79   2.248       .  S
Mg39         O50   2.294       .  S
O40         Mg82   2.138       .  S
O40         Mg65   2.104       .  S
O40          C61   1.239       .  S
O41          C72   1.271       .  A
O41         Mg65   2.294       .  S
C42        C2137   1.476       .  S
C42          O44   1.273       .  A
C42          O56   1.276       .  A
O43          C71   1.272       .  A
O43         Mg45   2.296       .  S
O44         Mg76   2.256       .  S
Mg45         O51   2.106       .  S
Mg45         O59   2.248       .  S
Mg45         O47   2.293       .  S
C46         C114   1.469       .  S
C46          O84   1.271       .  A
C46          O52   1.275       .  A
O47          C54   1.275       .  A
H48          C61   1.081       .  S
C49          H74   1.081       .  S
C49          O63   1.239       .  S
C49          O64   1.271       .  A
O50          C73   1.271       .  A
O51         Mg65   2.139       .  S
O52         Mg82   2.292       .  S
C53          O66   1.272       .  A
C53          O58   1.275       .  A
C54        C1300   1.470       .  S
C54          O81   1.271       .  A
Mg55         O62   2.109       .  S
Mg55         O63   2.139       .  S
Mg55         O56   2.305       .  S
Mg55         O57   2.294       .  S
Mg55         O84   2.243       .  S
O57          C61   1.272       .  A
O58         Mg65   2.296       .  S
O59          C78   1.271       .  A
O60          C80   1.276       .  A
O60         Mg76   2.298       .  S
O62         Mg76   2.133       .  S
O62          C73   1.239       .  S
O63         Mg82   2.111       .  S
O64         Mg76   2.295       .  S
Mg65         O81   2.245       .  S
O66         Mg82   2.252       .  S
H67          C72   1.081       .  S
O68         Mg76   2.112       .  S
O68          C71   1.239       .  S
H69          C71   1.081       .  S
H70          C73   1.081       .  S
O75         Mg82   2.293       .  S
C78        C1366   1.472       .  S
C78          O83   1.275       .  A
O79          C80   1.271       .  A
C80         C427   1.472       .  S
C85          C86   1.408       .  A
C85          C90   1.403       .  A
C85        C1710   1.478       .  S
C86          C87   1.408       .  A
C86          H91   1.083       .  S
C87          C88   1.408       .  A
C87          C98   1.499       .  S
C88          C89   1.408       .  A
C88          H92   1.083       .  S
C89          C90   1.403       .  A
C89         C836   1.478       .  S
C90          H93   1.084       .  S
C94          C95   1.411       .  A
C94          C99   1.407   1_565  A
C94         C116   1.504       .  S
C95          C96   1.411   1_565  A
C95         H100   1.081       .  S
C96          C97   1.407       .  A
C96         C105   1.504       .  S
C97          C98   1.413       .  A
C97         H101   1.082       .  S
C98          C99   1.413       .  A
C99         H102   1.082       .  S
C103        C104   1.404       .  A
C103        C108   1.393       .  A
C103        C754   1.473       .  S
C104        C105   1.410   1_565  A
C104        H109   1.083       .  S
C105        C106   1.417       .  A
C106        C107   1.413       .  A
C106        H110   1.083       .  S
C107        C108   1.399   1_545  A
C107        C162   1.476       .  S
C108        H111   1.085       .  S
C112        C113   1.396       .  A
C112        C117   1.414       .  A
C112        C930   1.474       .  S
C113        C114   1.392       .  A
C113        H118   1.085       .  S
C114        C115   1.403       .  A
C115        C116   1.410       .  A
C115        H119   1.083       .  S
C116        C117   1.418       .  A
C117        H120   1.083       .  S
C121        C122   1.395       .  A
C121        C126   1.411       .  A
C121       C1318   1.470       .  S
C122        C123   1.391       .  A
C122        H127   1.085       .  S
C123        C124   1.403       .  A
C123        C545   1.467       .  S
C124        C125   1.409       .  A
C124        H128   1.083       .  S
C125        C126   1.416       .  A
C125        C130   1.500       .  S
C126        H129   1.083       .  S
C130        C131   1.407       .  A
C130        C135   1.412       .  A
C131        C132   1.410       .  A
C131        H136   1.082       .  S
C132        C133   1.410       .  A
C132        C143   1.498   1_554  S
C133        C134   1.408       .  A
C133        H137   1.081   1_554  S
C134        C135   1.409       .  A
C134        C150   1.503       .  S
C135        H138   1.081       .  S
C139        C140   1.405       .  A
C139        C144   1.408       .  A
C139        C593   1.480       .  S
C140        C141   1.404       .  A
C140        H145   1.084       .  S
C141        C142   1.406       .  A
C141       C1734   1.478       .  S
C142        C143   1.407       .  A
C142        H146   1.083       .  S
C143        C144   1.407       .  A
C144        H147   1.083   1_556  S
C148        C149   1.409       .  A
C148        C153   1.403       .  A
C148        C798   1.480       .  S
C149        C150   1.409       .  A
C149        H154   1.083       .  S
C150        C151   1.408       .  A
C151        C152   1.408       .  A
C151        H155   1.083       .  S
C152        C153   1.403       .  A
C152       C2550   1.478       .  S
C153        H156   1.084       .  S
O157       Mg159   2.116       .  S
O157       Mg165   2.100       .  S
O157        C192   1.240       .  S
C158        H197   1.081       .  S
C158        O171   1.240       .  S
C158        O195   1.274   1_565  A
Mg159       O188   2.102       .  S
Mg159       O203   2.340       .  S
Mg159       O199   2.222       .  S
Mg159       O170   2.314   1_565  S
O160       Mg202   2.104       .  S
O160       Mg185   2.118       .  S
O160        C181   1.240       .  S
O161        C192   1.274   1_545  A
O161       Mg185   2.312       .  S
C162        O164   1.269   1_545  A
C162        O176   1.276       .  A
O163        C191   1.275       .  A
O163       Mg165   2.313       .  S
O164       Mg196   2.233       .  S
Mg165       O171   2.120       .  S
Mg165       O179   2.224       .  S
Mg165       O167   2.338       .  S
C166       C2464   1.474       .  S
C166        O204   1.271       .  A
C166        O172   1.275       .  A
O167        C174   1.274       .  A
H168        C181   1.081       .  S
C169        H194   1.081       .  S
C169        O183   1.240       .  S
C169        O184   1.275   1_545  A
O170        C193   1.275       .  A
O171       Mg185   2.104   1_565  S
O172       Mg202   2.340       .  S
C173       C2634   1.478       .  S
C173        O186   1.271       .  A
C173        O178   1.276       .  A
C174        C973   1.471       .  S
C174        O201   1.270   1_565  A
Mg175       O182   2.125       .  S
Mg175       O183   2.106       .  S
Mg175       O176   2.347       .  S
Mg175       O177   2.313       .  S
Mg175       O204   2.237       .  S
O177        C181   1.275       .  A
O178       Mg185   2.345       .  S
O179        C198   1.269       .  A
O180        C200   1.274       .  A
O180       Mg196   2.341       .  S
O182       Mg196   2.102   1_545  S
O182        C193   1.240       .  S
O183       Mg202   2.130       .  S
O184       Mg196   2.316       .  S
Mg185       O201   2.224       .  S
O186       Mg202   2.244       .  S
H187        C192   1.081       .  S
O188       Mg196   2.122       .  S
O188        C191   1.240       .  S
H189        C191   1.081       .  S
H190        C193   1.081       .  S
O195       Mg202   2.311       .  S
C198        C409   1.471       .  S
C198        O203   1.274       .  A
O199        C200   1.269       .  A
C200       C1795   1.471       .  S
C205        C206   1.409       .  A
C205        C210   1.401       .  A
C205       C1938   1.476       .  S
C206        C207   1.408       .  A
C206        H211   1.083       .  S
C207        C208   1.407       .  A
C207        C225   1.499       .  S
C208        C209   1.407       .  A
C208        H212   1.083       .  S
C209        C210   1.401       .  A
C209       C1182   1.474       .  S
C210        H213   1.084       .  S
C214        C215   1.394       .  A
C214        C219   1.403       .  A
C214       C1241   1.472       .  S
C215        C216   1.399       .  A
C215        H220   1.085       .  S
C216        C217   1.412       .  A
C216       C1530   1.474       .  S
C217        C218   1.415       .  A
C217        H221   1.083       .  S
C218        C219   1.410       .  A
C218        C227   1.500   1_455  S
C219        H222   1.083   1_455  S
C223        C224   1.408       .  A
C223        C228   1.408       .  A
C223        C234   1.502       .  S
C224        C225   1.411       .  A
C224        H229   1.081       .  S
C225        C226   1.412       .  A
C226        C227   1.408       .  A
C226        H230   1.082   1_655  S
C227        C228   1.411       .  A
C228        H231   1.081       .  S
C232        C233   1.407       .  A
C232        C237   1.403       .  A
C232       C1577   1.477       .  S
C233        C234   1.408       .  A
C233        H238   1.083       .  S
C234        C235   1.409       .  A
C235        C236   1.410       .  A
C235        H239   1.083       .  S
C236        C237   1.403       .  A
C236       C1650   1.480       .  S
C237        H240   1.084       .  S
O241       Mg243   2.118       .  S
O241       Mg249   2.139       .  S
O241        C276   1.239       .  S
C242        H281   1.081       .  S
C242        O255   1.239       .  S
C242        O279   1.272       .  A
Mg243       O272   2.135       .  S
Mg243       O287   2.290       .  S
Mg243       O283   2.253       .  S
Mg243       O254   2.293       .  S
O244       Mg286   2.141       .  S
O244       Mg269   2.117       .  S
O244        C265   1.239       .  S
O245        C276   1.272       .  A
O245       Mg269   2.296       .  S
C246       C1357   1.472       .  S
C246        O248   1.272       .  A
C246        O260   1.276       .  A
O247        C275   1.272       .  A
O247       Mg249   2.297       .  S
O248       Mg280   2.249       .  S
Mg249       O255   2.113       .  S
Mg249       O263   2.250       .  S
Mg249       O251   2.316       .  S
C250        C318   1.475       .  S
C250        O288   1.273       .  A
C250        O256   1.275       .  A
O251        C258   1.277       .  A
H252        C265   1.081       .  S
C253        H278   1.081       .  S
C253        O267   1.239       .  S
C253        O268   1.272       .  A
O254        C277   1.271       .  A
O255       Mg269   2.134       .  S
O256       Mg286   2.298       .  S
C257        O270   1.270       .  A
C257        O262   1.277       .  A
C258       C1220   1.481       .  S
C258        O285   1.274       .  A
Mg259       O266   2.112       .  S
Mg259       O267   2.135       .  S
Mg259       O260   2.298       .  S
Mg259       O261   2.296       .  S
Mg259       O288   2.259       .  S
O261        C265   1.272       .  A
O262       Mg269   2.304       .  S
O263        C282   1.272       .  A
O264        C284   1.277       .  A
O264       Mg280   2.317       .  S
O266       Mg280   2.141       .  S
O266        C277   1.239       .  S
O267       Mg286   2.109       .  S
O268       Mg280   2.297       .  S
Mg269       O285   2.265       .  S
O270       Mg286   2.240       .  S
H271        C276   1.081       .  S
O272       Mg280   2.112       .  S
O272        C275   1.240       .  S
H273        C275   1.081       .  S
H274        C277   1.081       .  S
O279       Mg286   2.295       .  S
C282       C1824   1.471       .  S
C282        O287   1.274       .  A
O283        C284   1.272       .  A
C284       C1770   1.479       .  S
C289        C290   1.408       .  A
C289        C294   1.402       .  A
C289       C1626   1.478       .  S
C290        C291   1.407       .  A
C290        H295   1.083       .  S
C291        C292   1.409       .  A
C291        C300   1.501       .  S
C292        C293   1.410       .  A
C292        H296   1.083       .  S
C293        C294   1.404       .  A
C293       C1158   1.479       .  S
C294        H297   1.084       .  S
C298        C299   1.409       .  A
C298        C303   1.413       .  A
C298        C320   1.499   1_554  S
C299        C300   1.410       .  A
C299        H304   1.082       .  S
C300        C301   1.410       .  A
C301        C302   1.410       .  A
C301        H305   1.082       .  S
C302        C303   1.407       .  A
C302        C309   1.502       .  S
C303        H306   1.082   1_554  S
C307        C308   1.405       .  A
C307        C312   1.391       .  A
C307        C586   1.469       .  S
C308        C309   1.410       .  A
C308        H313   1.083       .  S
C309        C310   1.416       .  A
C310        C311   1.411       .  A
C310        H314   1.083       .  S
C311        C312   1.395       .  A
C311       C1325   1.470       .  S
C312        H315   1.085       .  S
C316        C317   1.401       .  A
C316        C321   1.410       .  A
C316        C846   1.476       .  S
C317        C318   1.397       .  A
C317        H322   1.085       .  S
C318        C319   1.404       .  A
C319        C320   1.409       .  A
C319        H323   1.083       .  S
C320        C321   1.415       .  A
C321        H324   1.083   1_556  S
C325        C326   1.408       .  A
C325        C330   1.404       .  A
C325        C538   1.479       .  S
C326        C327   1.407       .  A
C326        H331   1.083       .  S
C327        C328   1.408       .  A
C327        C336   1.500       .  S
C328        C329   1.409       .  A
C328        H332   1.083       .  S
C329        C330   1.404       .  A
C329       C2526   1.480       .  S
C330        H333   1.084       .  S
C334        C335   1.408       .  A
C334        C339   1.410       .  A
C334        C354   1.503       .  S
C335        C336   1.412       .  A
C335        H340   1.082       .  S
C336        C337   1.412       .  A
C337        C338   1.408       .  A
C337        H341   1.082       .  S
C338        C339   1.414       .  A
C338        C345   1.503       .  S
C339        H342   1.082       .  S
C343        C344   1.413       .  A
C343        C348   1.397       .  A
C343       C1554   1.474       .  S
C344        C345   1.417       .  A
C344        H349   1.083       .  S
C345        C346   1.410       .  A
C346        C347   1.405       .  A
C346        H350   1.083       .  S
C347        C348   1.394       .  A
C347       C1914   1.472       .  S
C348        H351   1.085       .  S
C352        C353   1.408       .  A
C352        C357   1.388       .  A
C352       C2430   1.467       .  S
C353        C354   1.417       .  A
C353        H358   1.083       .  S
C354        C355   1.418       .  A
C355        C356   1.409       .  A
C355        H359   1.083       .  S
C356        C357   1.389       .  A
C356       C2262   1.469       .  S
C357        H360   1.086       .  S
O361       Mg363   2.128       .  S
O361       Mg369   2.106       .  S
O361        C396   1.240       .  S
C362        H401   1.081       .  S
C362        O375   1.240       .  S
C362        O399   1.274       .  A
Mg363       O392   2.104       .  S
Mg363       O407   2.331       .  S
Mg363       O403   2.236       .  S
Mg363       O374   2.312       .  S
O364       Mg406   2.104       .  S
O364       Mg389   2.123       .  S
O364        C385   1.240       .  S
O365        C396   1.275       .  A
O365       Mg389   2.316       .  S
C366        C429   1.476       .  S
C366        O368   1.271       .  A
C366        O380   1.275       .  A
O367        C395   1.275       .  A
O367       Mg369   2.313       .  S
O368       Mg400   2.238       .  S
Mg369       O375   2.119       .  S
Mg369       O383   2.225       .  S
Mg369       O371   2.345       .  S
C370       C1797   1.470       .  S
C370        O408   1.269       .  A
C370        O376   1.273       .  A
O371        C378   1.275       .  A
H372        C385   1.081       .  S
C373        H398   1.081       .  S
C373        O387   1.240       .  S
C373        O388   1.275       .  A
O374        C397   1.274       .  A
O375       Mg389   2.103       .  S
O376       Mg406   2.333       .  S
C377        C625   1.475       .  S
C377        O390   1.269       .  A
C377        O382   1.276       .  A
C378       C1477   1.475       .  S
C378        O405   1.270       .  A
Mg379       O386   2.118       .  S
Mg379       O387   2.105       .  S
Mg379       O380   2.345       .  S
Mg379       O381   2.314       .  S
Mg379       O408   2.224       .  S
O381        C385   1.275       .  A
O382       Mg389   2.345       .  S
O383        C402   1.270       .  A
O384        C404   1.276       .  A
O384       Mg400   2.343       .  S
O386       Mg400   2.103       .  S
O386        C397   1.240       .  S
O387       Mg406   2.128       .  S
O388       Mg400   2.315       .  S
Mg389       O405   2.237       .  S
O390       Mg406   2.235       .  S
H391        C396   1.081       .  S
O392       Mg400   2.121       .  S
O392        C395   1.240       .  S
H393        C395   1.081       .  S
H394        C397   1.081       .  S
O399       Mg406   2.313       .  S
C402       C1393   1.469       .  S
C402        O407   1.273       .  A
O403        C404   1.270       .  A
C404       C2164   1.475       .  S
C409        C410   1.410       .  A
C409        C414   1.389       .  A
C410        C411   1.419       .  A
C410        H415   1.083       .  S
C411        C412   1.417       .  A
C411        C420   1.504       .  S
C412        C413   1.409       .  A
C412        H416   1.083       .  S
C413        C414   1.389       .  A
C413       C1014   1.469       .  S
C414        H417   1.086       .  S
C418        C419   1.412       .  A
C418        C423   1.411       .  A
C418        C440   1.507       .  S
C419        C420   1.414       .  A
C419        H424   1.083       .  S
C420        C421   1.413       .  A
C421        C422   1.411       .  A
C421        H425   1.083       .  S
C422        C423   1.414       .  A
C422        C431   1.506       .  S
C423        H426   1.082       .  S
C427        C428   1.392       .  A
C427        C432   1.405       .  A
C428        C429   1.396       .  A
C428        H433   1.085       .  S
C429        C430   1.415       .  A
C430        C431   1.418       .  A
C430        H434   1.083       .  S
C431        C432   1.411       .  A
C432        H435   1.083       .  S
C436        C437   1.387       .  A
C436        C441   1.409       .  A
C436       C1470   1.468       .  S
C437        C438   1.388       .  A
C437        H442   1.086       .  S
C438        C439   1.411       .  A
C438       C2562   1.470       .  S
C439        C440   1.419       .  A
C439        H443   1.083       .  S
C440        C441   1.419       .  A
C441        H444   1.083       .  S
O445       Mg447   2.128       .  S
O445       Mg453   2.137       .  S
O445        C480   1.239       .  S
C446        H485   1.081       .  S
C446        O459   1.240       .  S
C446        O483   1.272       .  A
Mg447       O476   2.137       .  S
Mg447       O491   2.317       .  S
Mg447       O487   2.268       .  S
Mg447       O458   2.296       .  S
O448       Mg490   2.138       .  S
O448       Mg473   2.116       .  S
O448        C469   1.240       .  S
O449        C480   1.273       .  A
O449       Mg473   2.300       .  S
C450       C1813   1.478       .  S
C450        O452   1.273       .  A
C450        O464   1.277       .  A
O451        C479   1.273       .  A
O451       Mg453   2.301       .  S
O452       Mg484   2.255       .  S
Mg453       O459   2.119       .  S
Mg453       O467   2.256       .  S
Mg453       O455   2.324       .  S
C454        C645   1.474       .  S
C454        O492   1.272       .  A
C454        O460   1.277       .  A
O455        C462   1.278       .  A
H456        C469   1.081       .  S
C457        H482   1.081       .  S
C457        O471   1.239       .  S
C457        O472   1.272       .  A
O458        C481   1.272       .  A
O459       Mg473   2.135       .  S
O460       Mg490   2.303       .  S
C461        O474   1.272       .  A
C461        O466   1.276       .  A
C462        C738   1.479       .  S
C462        O489   1.272       .  A
Mg463       O470   2.115       .  S
Mg463       O471   2.139       .  S
Mg463       O464   2.315       .  S
Mg463       O465   2.298       .  S
Mg463       O492   2.252       .  S
O465        C469   1.273       .  A
O466       Mg473   2.307       .  S
O467        C486   1.273       .  A
O468        C488   1.276       .  A
O468       Mg484   2.311       .  S
O470       Mg484   2.136       .  S
O470        C481   1.239       .  S
O471       Mg490   2.115       .  S
O472       Mg484   2.295       .  S
Mg473       O489   2.254       .  S
O474       Mg490   2.259       .  S
H475        C480   1.081       .  S
O476       Mg484   2.123       .  S
O476        C479   1.240       .  S
H477        C479   1.081       .  S
H478        C481   1.081       .  S
O483       Mg490   2.298       .  S
C486       C2146   1.478       .  S
C486        O491   1.278       .  A
O487        C488   1.275       .  A
C488       C1686   1.481       .  S
C493        C494   1.404       .  A
C493        C498   1.406       .  A
C493       C1902   1.476       .  S
C494        C495   1.404       .  A
C494        H499   1.084       .  S
C495        C496   1.408       .  A
C495       C2357   1.478       .  S
C496        C497   1.406       .  A
C496        H500   1.083       .  S
C497        C498   1.406       .  A
C497        C502   1.497       .  S
C498        H501   1.083       .  S
C502        C503   1.410       .  A
C502        C507   1.409       .  A
C503        C504   1.407       .  A
C503        H508   1.082       .  S
C504        C505   1.411       .  A
C504        C522   1.498       .  S
C505        C506   1.408       .  A
C505        H509   1.082       .  S
C506        C507   1.407       .  A
C506        C513   1.501       .  S
C507        H510   1.081       .  S
C511        C512   1.408       .  A
C511        C516   1.405       .  A
C511        C582   1.481       .  S
C512        C513   1.408       .  A
C512        H517   1.083       .  S
C513        C514   1.407       .  A
C514        C515   1.408       .  A
C514        H518   1.083       .  S
C515        C516   1.405       .  A
C515       C1625   1.480       .  S
C516        H519   1.084       .  S
C520        C521   1.403       .  A
C520        C525   1.392       .  A
C520        C570   1.467       .  S
C521        C522   1.408       .  A
C521        H526   1.083       .  S
C522        C523   1.415       .  A
C523        C524   1.411       .  A
C523        H527   1.083       .  S
C524        C525   1.396       .  A
C524       C1866   1.470       .  S
C525        H528   1.085       .  S
O529       Mg531   2.115       .  S
O529       Mg537   2.141       .  S
O529        C564   1.239       .  S
C530        H569   1.081       .  S
C530        O543   1.239       .  S
C530        O567   1.272       .  A
Mg531       O560   2.134       .  S
Mg531       O575   2.292       .  S
Mg531       O571   2.256       .  S
Mg531       O542   2.295       .  S
O532       Mg574   2.142       .  S
O532       Mg557   2.118       .  S
O532        C553   1.239       .  S
O533        C564   1.272       .  A
O533       Mg557   2.295       .  S
C534       C2289   1.469       .  S
C534        O536   1.272       .  A
C534        O548   1.275       .  A
O535        C563   1.272       .  A
O535       Mg537   2.297       .  S
O536       Mg568   2.246       .  S
Mg537       O543   2.110       .  S
Mg537       O551   2.238       .  S
Mg537       O539   2.313       .  S
C538        O576   1.273       .  A
C538        O544   1.276       .  A
O539        C546   1.276       .  A
H540        C553   1.081       .  S
C541        H566   1.081       .  S
C541        O555   1.239       .  S
C541        O556   1.272       .  A
O542        C565   1.272       .  A
O543       Mg557   2.133       .  S
O544       Mg574   2.312       .  S
C545        O558   1.270       .  A
C545        O550   1.275       .  A
C546       C2112   1.480       .  S
C546        O573   1.273       .  A
Mg547       O554   2.116       .  S
Mg547       O555   2.133       .  S
Mg547       O548   2.290       .  S
Mg547       O549   2.295       .  S
Mg547       O576   2.259       .  S
O549        C553   1.271       .  A
O550       Mg557   2.291       .  S
O551        C570   1.270       .  A
O552        C572   1.276       .  A
O552       Mg568   2.310       .  S
O554       Mg568   2.142       .  S
O554        C565   1.239       .  S
O555       Mg574   2.107       .  S
O556       Mg568   2.295       .  S
Mg557       O573   2.262       .  S
O558       Mg574   2.236       .  S
H559        C564   1.081       .  S
O560       Mg568   2.113       .  S
O560        C563   1.239       .  S
H561        C563   1.081       .  S
H562        C565   1.081       .  S
O567       Mg574   2.298       .  S
C570        O575   1.275       .  A
O571        C572   1.273       .  A
C572       C2085   1.477       .  S
O577       Mg579   2.118   1_556  S
O577       Mg585   2.139       .  S
O577        C612   1.239       .  S
C578        H617   1.081       .  S
C578        O591   1.239   1_554  S
C578        O615   1.271       .  A
Mg579       O608   2.137       .  S
Mg579       O623   2.303       .  S
Mg579       O619   2.257       .  S
Mg579       O590   2.296       .  S
O580       Mg622   2.135   1_556  S
O580       Mg605   2.117       .  S
O580        C601   1.240       .  S
O581        C612   1.272       .  A
O581       Mg605   2.296       .  S
C582        O584   1.274       .  A
C582        O596   1.277       .  A
O583        C611   1.273       .  A
O583       Mg585   2.300   1_554  S
O584       Mg616   2.264       .  S
Mg585       O591   2.106       .  S
Mg585       O599   2.243       .  S
Mg585       O587   2.303       .  S
C586        O624   1.270       .  A
C586        O592   1.276       .  A
O587        C594   1.276       .  A
H588        C601   1.081       .  S
C589        H614   1.081       .  S
C589        O603   1.239       .  S
C589        O604   1.272       .  A
O590        C613   1.272       .  A
O591       Mg605   2.138       .  S
O592       Mg622   2.296       .  S
C593        O606   1.274       .  A
C593        O598   1.276       .  A
C594       C1743   1.475       .  S
C594        O621   1.273       .  A
Mg595       O602   2.111       .  S
Mg595       O603   2.142       .  S
Mg595       O596   2.316       .  S
Mg595       O597   2.299       .  S
Mg595       O624   2.240       .  S
O597        C601   1.273   1_554  A
O598       Mg605   2.311       .  S
O599        C618   1.270   1_556  A
O600        C620   1.277       .  A
O600       Mg616   2.316       .  S
O602       Mg616   2.133       .  S
O602        C613   1.239       .  S
O603       Mg622   2.123       .  S
O604       Mg616   2.298       .  S
Mg605       O621   2.256       .  S
O606       Mg622   2.264   1_556  S
H607        C612   1.081       .  S
O608       Mg616   2.123       .  S
O608        C611   1.240       .  S
H609        C611   1.081       .  S
H610        C613   1.081       .  S
O615       Mg622   2.292       .  S
C618        C889   1.472       .  S
C618        O623   1.277       .  A
O619        C620   1.273       .  A
C620       C2058   1.478       .  S
C625        C626   1.398       .  A
C625        C630   1.412       .  A
C626        C627   1.395       .  A
C626        H631   1.085       .  S
C627        C628   1.404       .  A
C627        C704   1.473       .  S
C628        C629   1.409       .  A
C628        H632   1.083   1_455  S
C629        C630   1.416       .  A
C629        C638   1.501   1_455  S
C630        H633   1.083       .  S
C634        C635   1.410       .  A
C634        C639   1.410       .  A
C634        C656   1.502       .  S
C635        C636   1.410       .  A
C635        H640   1.081       .  S
C636        C637   1.408       .  A
C636        C647   1.504       .  S
C637        C638   1.415       .  A
C637        H641   1.082       .  S
C638        C639   1.409       .  A
C639        H642   1.082   1_655  S
C643        C644   1.397       .  A
C643        C648   1.412       .  A
C643       C1050   1.473       .  S
C644        C645   1.393       .  A
C644        H649   1.085       .  S
C645        C646   1.406       .  A
C646        C647   1.412       .  A
C646        H650   1.083       .  S
C647        C648   1.416       .  A
C648        H651   1.083       .  S
C652        C653   1.400       .  A
C652        C657   1.407       .  A
C652       C1234   1.474       .  S
C653        C654   1.401       .  A
C653        H658   1.084       .  S
C654        C655   1.410       .  A
C654       C1570   1.476       .  S
C655        C656   1.409       .  A
C655        H659   1.083       .  S
C656        C657   1.408       .  A
C657        H660   1.083       .  S
O661       Mg663   2.106       .  S
O661       Mg669   2.140   1_565  S
O661        C696   1.239       .  S
C662        H701   1.081       .  S
C662        O675   1.239       .  S
C662        O699   1.271       .  A
Mg663       O692   2.135   1_655  S
Mg663       O707   2.303       .  S
Mg663       O703   2.253       .  S
Mg663       O674   2.298       .  S
O664       Mg706   2.139       .  S
O664       Mg689   2.110       .  S
O664        C685   1.239       .  S
O665        C696   1.272       .  A
O665       Mg689   2.293   1_565  S
C666       C1806   1.470       .  S
C666        O668   1.271       .  A
C666        O680   1.275       .  A
O667        C695   1.271   1_645  A
O667       Mg669   2.292       .  S
O668       Mg700   2.243       .  S
Mg669       O675   2.106       .  S
Mg669       O683   2.244   1_545  S
Mg669       O671   2.291       .  S
C670       C2305   1.477       .  S
C670        O708   1.273   1_655  A
C670        O676   1.277       .  A
O671        C678   1.274       .  A
H672        C685   1.081       .  S
C673        H698   1.081       .  S
C673        O687   1.239       .  S
C673        O688   1.272       .  A
O674        C697   1.272       .  A
O675       Mg689   2.137       .  S
O676       Mg706   2.311       .  S
C677       C1976   1.470       .  S
C677        O690   1.272       .  A
C677        O682   1.275       .  A
C678        C711   1.471       .  S
C678        O705   1.271       .  A
Mg679       O686   2.114       .  S
Mg679       O687   2.135   1_565  S
Mg679       O680   2.295       .  S
Mg679       O681   2.294   1_455  S
Mg679       O708   2.254   1_565  S
O681        C685   1.271   1_565  A
O682       Mg689   2.291       .  S
O683        C702   1.271       .  A
O684        C704   1.275       .  A
O684       Mg700   2.294       .  S
O686       Mg700   2.139       .  S
O686        C697   1.239   1_455  S
O687       Mg706   2.110   1_455  S
O688       Mg700   2.295   1_545  S
Mg689       O705   2.249       .  S
O690       Mg706   2.250       .  S
H691        C696   1.081       .  S
O692       Mg700   2.105       .  S
O692        C695   1.239       .  S
H693        C695   1.081       .  S
H694        C697   1.081       .  S
O699       Mg706   2.295       .  S
C702       C1000   1.472       .  S
C702        O707   1.277       .  A
O703        C704   1.272   1_655  A
C709        C710   1.398   1_565  A
C709        C714   1.411       .  A
C709        C966   1.474       .  S
C710        C711   1.395       .  A
C710        H715   1.085       .  S
C711        C712   1.403       .  A
C712        C713   1.408       .  A
C712        H716   1.083       .  S
C713        C714   1.415   1_545  A
C713        C720   1.499       .  S
C714        H717   1.083       .  S
C718        C719   1.407       .  A
C718        C723   1.409       .  A
C718        C729   1.502       .  S
C719        C720   1.414       .  A
C719        H724   1.082       .  S
C720        C721   1.409   1_545  A
C721        C722   1.410       .  A
C721        H725   1.082       .  S
C722        C723   1.410   1_565  A
C722        C740   1.501       .  S
C723        H726   1.081       .  S
C727        C728   1.404       .  A
C727        C732   1.394       .  A
C727       C2350   1.472       .  S
C728        C729   1.411       .  A
C728        H733   1.083       .  S
C729        C730   1.416       .  A
C730        C731   1.412       .  A
C730        H734   1.083       .  S
C731        C732   1.397       .  A
C731       C1890   1.473       .  S
C732        H735   1.085       .  S
C736        C737   1.402       .  A
C736        C741   1.406       .  A
C736        C788   1.475       .  S
C737        C738   1.403       .  A
C737        H742   1.084       .  S
C738        C739   1.411       .  A
C739        C740   1.409       .  A
C739        H743   1.083       .  S
C740        C741   1.407       .  A
C741        H744   1.083       .  S
O745       Mg747   2.122       .  S
O745       Mg753   2.136       .  S
O745        C780   1.239       .  S
C746        H785   1.081       .  S
C746        O759   1.239       .  S
C746        O783   1.272   1_545  A
Mg747       O776   2.137   1_545  S
Mg747       O791   2.313       .  S
Mg747       O787   2.257   1_545  S
Mg747       O758   2.296       .  S
O748       Mg790   2.139   1_545  S
O748       Mg773   2.114       .  S
O748        C769   1.239       .  S
O749        C780   1.272       .  A
O749       Mg773   2.299       .  S
C750       C2139   1.476       .  S
C750        O752   1.273       .  A
C750        O764   1.276       .  A
O751        C779   1.273       .  A
O751       Mg753   2.300   1_565  S
O752       Mg784   2.256       .  S
Mg753       O759   2.117       .  S
Mg753       O767   2.251       .  S
Mg753       O755   2.316       .  S
C754        O792   1.271       .  A
C754        O760   1.276       .  A
O755        C762   1.277       .  A
H756        C769   1.081       .  S
C757        H782   1.081       .  S
C757        O771   1.239       .  S
C757        O772   1.271       .  A
O758        C781   1.272   1_545  A
O759       Mg773   2.135       .  S
O760       Mg790   2.300       .  S
C761       C1777   1.472       .  S
C761        O774   1.271       .  A
C761        O766   1.276       .  A
C762       C2083   1.477       .  S
C762        O789   1.272       .  A
Mg763       O770   2.114       .  S
Mg763       O771   2.138       .  S
Mg763       O764   2.306       .  S
Mg763       O765   2.296   1_565  S
Mg763       O792   2.248       .  S
O765        C769   1.272       .  A
O766       Mg773   2.301       .  S
O767        C786   1.273       .  A
O768        C788   1.276       .  A
O768       Mg784   2.306       .  S
O770       Mg784   2.136       .  S
O770        C781   1.239       .  S
O771       Mg790   2.109       .  S
O772       Mg784   2.294       .  S
Mg773       O789   2.253       .  S
O774       Mg790   2.248   1_545  S
H775        C780   1.081       .  S
O776       Mg784   2.123       .  S
O776        C779   1.239       .  S
H777        C779   1.081       .  S
H778        C781   1.081       .  S
O783       Mg790   2.298       .  S
C786       C2269   1.476       .  S
C786        O791   1.277       .  A
O787        C788   1.273       .  A
O793       Mg795   2.117       .  S
O793       Mg801   2.139   1_556  S
O793        C828   1.239       .  S
C794        H833   1.081       .  S
C794        O807   1.239       .  S
C794        O831   1.272   1_565  A
Mg795       O824   2.137   1_565  S
Mg795       O839   2.302       .  S
Mg795       O835   2.258   1_565  S
Mg795       O806   2.295   1_565  S
O796       Mg838   2.134   1_565  S
O796       Mg821   2.112       .  S
O796        C817   1.239       .  S
O797        C828   1.272   1_554  A
O797       Mg821   2.298       .  S
C798        O800   1.273   1_554  A
C798        O812   1.277       .  A
O799        C827   1.273       .  A
O799       Mg801   2.300   1_545  S
O800       Mg832   2.259       .  S
Mg801       O807   2.108       .  S
Mg801       O815   2.250       .  S
Mg801       O803   2.309       .  S
C802       C2605   1.471       .  S
C802        O840   1.271       .  A
C802        O808   1.276       .  A
O803        C810   1.277       .  A
H804        C817   1.081       .  S
C805        H830   1.081       .  S
C805        O819   1.239       .  S
C805        O820   1.272       .  A
O806        C829   1.272       .  A
O807       Mg821   2.138       .  S
O808       Mg838   2.295       .  S
C809       C2300   1.478       .  S
C809        O822   1.273       .  A
C809        O814   1.276       .  A
C810       C1275   1.474       .  S
C810        O837   1.271       .  A
Mg811       O818   2.112   1_554  S
Mg811       O819   2.141       .  S
Mg811       O812   2.316       .  S
Mg811       O813   2.297   1_545  S
Mg811       O840   2.249       .  S
O813        C817   1.272       .  A
O814       Mg821   2.310       .  S
O815        C834   1.271   1_554  A
O816        C836   1.277       .  A
O816       Mg832   2.311       .  S
O818       Mg832   2.134       .  S
O818        C829   1.239       .  S
O819       Mg838   2.118       .  S
O820       Mg832   2.297   1_554  S
Mg821       O837   2.248       .  S
O822       Mg838   2.259   1_565  S
H823        C828   1.081       .  S
O824       Mg832   2.121       .  S
O824        C827   1.240   1_556  S
H825        C827   1.081       .  S
H826        C829   1.081       .  S
O831       Mg838   2.294       .  S
C834        C916   1.473       .  S
C834        O839   1.276       .  A
O835        C836   1.273       .  A
O841       Mg843   2.127   1_554  S
O841       Mg849   2.107       .  S
O841        C876   1.240       .  S
C842        H881   1.081       .  S
C842        O855   1.240       .  S
C842        O879   1.275       .  A
Mg843       O872   2.106   1_556  S
Mg843       O887   2.342   1_556  S
Mg843       O883   2.241       .  S
Mg843       O854   2.316       .  S
O844       Mg886   2.107       .  S
O844       Mg869   2.130       .  S
O844        C865   1.240       .  S
O845        C876   1.275       .  A
O845       Mg869   2.313       .  S
C846        O848   1.269       .  A
C846        O860   1.277       .  A
O847        C875   1.275       .  A
O847       Mg849   2.316       .  S
O848       Mg880   2.237       .  S
Mg849       O855   2.126       .  S
Mg849       O863   2.243       .  S
Mg849       O851   2.349       .  S
C850       C1086   1.476       .  S
C850        O888   1.271       .  A
C850        O856   1.276       .  A
O851        C858   1.277       .  A
H852        C865   1.081       .  S
C853        H878   1.081       .  S
C853        O867   1.240       .  S
C853        O868   1.275       .  A
O854        C877   1.275       .  A
O855       Mg869   2.107       .  S
O856       Mg886   2.344       .  S
C857       C1659   1.473       .  S
C857        O870   1.270       .  A
C857        O862   1.274       .  A
C858        C909   1.476       .  S
C858        O885   1.270       .  A
Mg859       O866   2.126   1_554  S
Mg859       O867   2.108       .  S
Mg859       O860   2.349   1_554  S
Mg859       O861   2.316       .  S
Mg859       O888   2.243       .  S
O861        C865   1.275       .  A
O862       Mg869   2.332       .  S
O863        C882   1.271       .  A
O864        C884   1.274       .  A
O864       Mg880   2.333       .  S
O866       Mg880   2.106       .  S
O866        C877   1.240       .  S
O867       Mg886   2.129       .  S
O868       Mg880   2.315   1_554  S
Mg869       O885   2.240       .  S
O870       Mg886   2.239       .  S
H871        C876   1.081   1_556  S
O872       Mg880   2.129   1_554  S
O872        C875   1.240       .  S
H873        C875   1.081       .  S
H874        C877   1.081       .  S
O879       Mg886   2.316       .  S
C882       C1273   1.476       .  S
C882        O887   1.275       .  A
O883        C884   1.270       .  A
C889        C890   1.407       .  A
C889        C894   1.393       .  A
C890        C891   1.410       .  A
C890        H895   1.083       .  S
C891        C892   1.416       .  A
C891        C900   1.502       .  S
C892        C893   1.411       .  A
C892        H896   1.083       .  S
C893        C894   1.396       .  A
C893       C1102   1.472       .  S
C894        H897   1.085       .  S
C898        C899   1.412       .  A
C898        C903   1.409       .  A
C898        C911   1.502       .  S
C899        C900   1.409   1_565  A
C899        H904   1.082       .  S
C900        C901   1.413       .  A
C901        C902   1.410   1_545  A
C901        H905   1.083   1_554  S
C902        C903   1.413       .  A
C902        C918   1.503   1_554  S
C903        H906   1.082       .  S
C907        C908   1.397       .  A
C907        C912   1.406       .  A
C907       C2382   1.476       .  S
C908        C909   1.399       .  A
C908        H913   1.085       .  S
C909        C910   1.411       .  A
C910        C911   1.416       .  A
C910        H914   1.083       .  S
C911        C912   1.411       .  A
C912        H915   1.083       .  S
C916        C917   1.406       .  A
C916        C921   1.394       .  A
C917        C918   1.411       .  A
C917        H922   1.083   1_556  S
C918        C919   1.416   1_565  A
C919        C920   1.412       .  A
C919        H923   1.083       .  S
C920        C921   1.396   1_545  A
C920        C934   1.473       .  S
C921        H924   1.085       .  S
O925       Mg927   2.123       .  S
O925       Mg933   2.103   1_565  S
O925        C960   1.240       .  S
C926        H965   1.081       .  S
C926        O939   1.240       .  S
C926        O963   1.275       .  A
Mg927       O956   2.105       .  S
Mg927       O971   2.337       .  S
Mg927       O967   2.236       .  S
Mg927       O938   2.316       .  S
O928       Mg970   2.104       .  S
O928       Mg953   2.115       .  S
O928        C949   1.240       .  S
O929        C960   1.275       .  A
O929       Mg953   2.315   1_565  S
C930        O932   1.271       .  A
C930        O944   1.275       .  A
O931        C959   1.275   1_545  A
O931       Mg933   2.315       .  S
O932       Mg964   2.238       .  S
Mg933       O939   2.129       .  S
Mg933       O947   2.237       .  S
Mg933       O935   2.332       .  S
C934        O972   1.270   1_545  A
C934        O940   1.274       .  A
O935        C942   1.273       .  A
H936        C949   1.081       .  S
C937        H962   1.081       .  S
C937        O951   1.240       .  S
C937        O952   1.275   1_545  A
O938        C961   1.275       .  A
O939       Mg953   2.107       .  S
O940       Mg970   2.333       .  S
C941       C1741   1.477       .  S
C941        O954   1.270       .  A
C941        O946   1.276       .  A
C942        C993   1.470       .  S
C942        O969   1.270       .  A
Mg943       O950   2.132       .  S
Mg943       O951   2.108   1_565  S
Mg943       O944   2.337       .  S
Mg943       O945   2.311       .  S
Mg943       O972   2.241       .  S
O945        C949   1.274   1_565  A
O946       Mg953   2.348       .  S
O947        C966   1.269   1_545  A
O948        C968   1.277       .  A
O948       Mg964   2.351       .  S
O950       Mg964   2.107       .  S
O950        C961   1.240       .  S
O951       Mg970   2.127       .  S
O952       Mg964   2.316       .  S
Mg953       O969   2.225       .  S
O954       Mg970   2.241       .  S
H955        C960   1.081       .  S
O956       Mg964   2.124       .  S
O956        C959   1.240       .  S
H957        C959   1.081       .  S
H958        C961   1.081       .  S
O963       Mg970   2.314       .  S
C966        O971   1.274       .  A
O967        C968   1.269       .  A
C973        C974   1.411       .  A
C973        C978   1.389   1_565  A
C974        C975   1.419       .  A
C974        H979   1.083       .  S
C975        C976   1.418   1_565  A
C975        C984   1.505   1_455  S
C976        C977   1.409       .  A
C976        H980   1.083   1_455  S
C977        C978   1.389       .  A
C977       C1136   1.469       .  S
C978        H981   1.086       .  S
C982        C983   1.411       .  A
C982        C987   1.411   1_545  A
C982        C995   1.508       .  S
C983        C984   1.414   1_545  A
C983        H988   1.083       .  S
C984        C985   1.414       .  A
C985        C986   1.412       .  A
C985        H989   1.083   1_655  S
C986        C987   1.415       .  A
C986       C1002   1.508       .  S
C987        H990   1.082       .  S
C991        C992   1.388       .  A
C991        C996   1.411       .  A
C991       C1998   1.470       .  S
C992        C993   1.388       .  A
C992        H997   1.086       .  S
C993        C994   1.410       .  A
C994        C995   1.419       .  A
C994        H998   1.083       .  S
C995        C996   1.419       .  A
C996        H999   1.083       .  S
C1000      C1001   1.406       .  A
C1000      C1005   1.391       .  A
C1001      C1002   1.412       .  A
C1001      H1006   1.083       .  S
C1002      C1003   1.419       .  A
C1003      C1004   1.416       .  A
C1003      H1007   1.083       .  S
C1004      C1005   1.395       .  A
C1004      C1052   1.476       .  S
C1005      H1008   1.085       .  S
O1009     Mg1011   2.126       .  S
O1009     Mg1017   2.106       .  S
O1009      C1044   1.240       .  S
C1010      H1049   1.081       .  S
C1010      O1023   1.240       .  S
C1010      O1047   1.275       .  A
Mg1011     O1040   2.105       .  S
Mg1011     O1055   2.339       .  S
Mg1011     O1051   2.242       .  S
Mg1011     O1022   2.310       .  S
O1012     Mg1054   2.101       .  S
O1012     Mg1037   2.119       .  S
O1012      C1033   1.240       .  S
O1013      C1044   1.275       .  A
O1013     Mg1037   2.316       .  S
C1014      O1016   1.269       .  A
C1014      O1028   1.273       .  A
O1015      C1043   1.274       .  A
O1015     Mg1017   2.311       .  S
O1016     Mg1048   2.222       .  S
Mg1017     O1023   2.127       .  S
Mg1017     O1031   2.235       .  S
Mg1017     O1019   2.335       .  S
C1018      C1075   1.468       .  S
C1018      O1056   1.268       .  A
C1018      O1024   1.273       .  A
O1019      C1026   1.274       .  A
H1020      C1033   1.081       .  S
C1021      H1046   1.081       .  S
C1021      O1035   1.240       .  S
C1021      O1036   1.275       .  A
O1022      C1045   1.274       .  A
O1023     Mg1037   2.104       .  S
O1024     Mg1054   2.335   1_455  S
C1025      C1189   1.475       .  S
C1025      O1038   1.269       .  A
C1025      O1030   1.275       .  A
C1026      O1053   1.269       .  A
Mg1027     O1034   2.114   1_455  S
Mg1027     O1035   2.102       .  S
Mg1027     O1028   2.335       .  S
Mg1027     O1029   2.314   1_455  S
Mg1027     O1056   2.216       .  S
O1029      C1033   1.275       .  A
O1030     Mg1037   2.344       .  S
O1031      C1050   1.270       .  A
O1032      C1052   1.274       .  A
O1032     Mg1048   2.337   1_655  S
O1034     Mg1048   2.101   1_655  S
O1034      C1045   1.239       .  S
O1035     Mg1054   2.123   1_455  S
O1036     Mg1048   2.314       .  S
Mg1037     O1053   2.231       .  S
O1038     Mg1054   2.233       .  S
H1039      C1044   1.081       .  S
O1040     Mg1048   2.116   1_655  S
O1040      C1043   1.240       .  S
H1041      C1043   1.081   1_455  S
H1042      C1045   1.081       .  S
O1047     Mg1054   2.315       .  S
C1050      O1055   1.275       .  A
O1051      C1052   1.272       .  A
C1057      C1058   1.406       .  A
C1057      C1062   1.392       .  A
C1057      C1602   1.471       .  S
C1058      C1059   1.411       .  A
C1058      H1063   1.083       .  S
C1059      C1060   1.417       .  A
C1059      C1066   1.504       .  S
C1060      C1061   1.413       .  A
C1060      H1064   1.083       .  S
C1061      C1062   1.395       .  A
C1061      C1110   1.472       .  S
C1062      H1065   1.085       .  S
C1066      C1067   1.415       .  A
C1066      C1071   1.412       .  A
C1067      C1068   1.409       .  A
C1067      H1072   1.082       .  S
C1068      C1069   1.413       .  A
C1068      C1088   1.507       .  S
C1069      C1070   1.412       .  A
C1069      H1073   1.082   1_554  S
C1070      C1071   1.413       .  A
C1070      C1077   1.505   1_654  S
C1071      H1074   1.083   1_655  S
C1075      C1076   1.408       .  A
C1075      C1080   1.388       .  A
C1076      C1077   1.418       .  A
C1076      H1081   1.083   1_455  S
C1077      C1078   1.419       .  A
C1078      C1079   1.411       .  A
C1078      H1082   1.083   1_556  S
C1079      C1080   1.389       .  A
C1079      C2566   1.471       .  S
C1080      H1083   1.086       .  S
C1084      C1085   1.394       .  A
C1084      C1089   1.408       .  A
C1084      C1157   1.476       .  S
C1085      C1086   1.397       .  A
C1085      H1090   1.085       .  S
C1086      C1087   1.414       .  A
C1087      C1088   1.418       .  A
C1087      H1091   1.083       .  S
C1088      C1089   1.412       .  A
C1089      H1092   1.083       .  S
O1093     Mg1095   2.113   1_654  S
O1093     Mg1101   2.103   1_655  S
O1093      C1128   1.240       .  S
C1094      H1133   1.081   1_655  S
C1094      O1107   1.240       .  S
C1094      O1131   1.274   1_565  A
Mg1095     O1124   2.100   1_566  S
Mg1095     O1139   2.328   1_556  S
Mg1095     O1135   2.218       .  S
Mg1095     O1106   2.312   1_455  S
O1096     Mg1138   2.106   1_565  S
O1096     Mg1121   2.122       .  S
O1096      C1117   1.240       .  S
O1097      C1128   1.274       .  A
O1097     Mg1121   2.310       .  S
C1098      C2047   1.464       .  S
C1098      O1100   1.268       .  A
C1098      O1112   1.271       .  A
O1099      C1127   1.274   1_565  A
O1099     Mg1101   2.309       .  S
O1100     Mg1132   2.208       .  S
Mg1101     O1107   2.116   1_455  S
Mg1101     O1115   2.216       .  S
Mg1101     O1103   2.331   1_455  S
C1102      O1140   1.268       .  A
C1102      O1108   1.274       .  A
O1103      C1110   1.273       .  A
H1104      C1117   1.081       .  S
C1105      H1130   1.081       .  S
C1105      O1119   1.240       .  S
C1105      O1120   1.275       .  A
O1106      C1129   1.274   1_565  A
O1107     Mg1121   2.104       .  S
O1108     Mg1138   2.337       .  S
C1109      C2325   1.470       .  S
C1109      O1122   1.269   1_565  A
C1109      O1114   1.274       .  A
C1110      O1137   1.270       .  A
Mg1111     O1118   2.122   1_554  S
Mg1111     O1119   2.101       .  S
Mg1111     O1112   2.324   1_554  S
Mg1111     O1113   2.312       .  S
Mg1111     O1140   2.230       .  S
O1113      C1117   1.274   1_545  A
O1114     Mg1121   2.333       .  S
O1115      C1134   1.269       .  A
O1116      C1136   1.274       .  A
O1116     Mg1132   2.339   1_455  S
O1118     Mg1132   2.101       .  S
O1118      C1129   1.240       .  S
O1119     Mg1138   2.118       .  S
O1120     Mg1132   2.315   1_554  S
Mg1121     O1137   2.236       .  S
O1122     Mg1138   2.228       .  S
H1123      C1128   1.081   1_556  S
O1124     Mg1132   2.108   1_454  S
O1124      C1127   1.240       .  S
H1125      C1127   1.081       .  S
H1126      C1129   1.081       .  S
O1131     Mg1138   2.312       .  S
C1134      C2623   1.466       .  S
C1134      O1139   1.272       .  A
O1135      C1136   1.268   1_565  A
O1141     Mg1143   2.128       .  S
O1141     Mg1149   2.138       .  S
O1141      C1176   1.239       .  S
C1142      H1181   1.081       .  S
C1142      O1155   1.239       .  S
C1142      O1179   1.273       .  A
Mg1143     O1172   2.136   1_655  S
Mg1143     O1187   2.306       .  S
Mg1143     O1183   2.268   1_655  S
Mg1143     O1154   2.292       .  S
O1144     Mg1186   2.139       .  S
O1144     Mg1169   2.116   1_556  S
O1144      C1165   1.240       .  S
O1145      C1176   1.273       .  A
O1145     Mg1169   2.301       .  S
C1146      C2502   1.474       .  S
C1146      O1148   1.272   1_556  A
C1146      O1160   1.276       .  A
O1147      C1175   1.272   1_655  A
O1147     Mg1149   2.297       .  S
O1148     Mg1180   2.252       .  S
Mg1149     O1155   2.119       .  S
Mg1149     O1163   2.252       .  S
Mg1149     O1151   2.318       .  S
C1150      C1191   1.473       .  S
C1150      O1188   1.271   1_655  A
C1150      O1156   1.276       .  A
O1151      C1158   1.277       .  A
H1152      C1165   1.081       .  S
C1153      H1178   1.081       .  S
C1153      O1167   1.239       .  S
C1153      O1168   1.272       .  A
O1154      C1177   1.271   1_554  A
O1155     Mg1169   2.134       .  S
O1156     Mg1186   2.304       .  S
C1157      O1170   1.271   1_554  A
C1157      O1162   1.278       .  A
C1158      O1185   1.273       .  A
Mg1159     O1166   2.106   1_556  S
Mg1159     O1167   2.136   1_556  S
Mg1159     O1160   2.300       .  S
Mg1159     O1161   2.299   1_455  S
Mg1159     O1188   2.245       .  S
O1161      C1165   1.273       .  A
O1162     Mg1169   2.312       .  S
O1163      C1182   1.273       .  A
O1164      C1184   1.276       .  A
O1164     Mg1180   2.309       .  S
O1166     Mg1180   2.139       .  S
O1166      C1177   1.239   1_454  S
O1167     Mg1186   2.110   1_454  S
O1168     Mg1180   2.295       .  S
Mg1169     O1185   2.259       .  S
O1170     Mg1186   2.251       .  S
H1171      C1176   1.081       .  S
O1172     Mg1180   2.114       .  S
O1172      C1175   1.239       .  S
H1173      C1175   1.081       .  S
H1174      C1177   1.081       .  S
O1179     Mg1186   2.299   1_554  S
C1182      O1187   1.276       .  A
O1183      C1184   1.275       .  A
C1184      C2031   1.480       .  S
C1189      C1190   1.397       .  A
C1189      C1194   1.413       .  A
C1190      C1191   1.393       .  A
C1190      H1195   1.085       .  S
C1191      C1192   1.406       .  A
C1192      C1193   1.410       .  A
C1192      H1196   1.083       .  S
C1193      C1194   1.417       .  A
C1193      C1202   1.504       .  S
C1194      H1197   1.083       .  S
C1198      C1199   1.409       .  A
C1198      C1203   1.411       .  A
C1198      C1209   1.505   1_655  S
C1199      C1200   1.412       .  A
C1199      H1204   1.082       .  S
C1200      C1201   1.412       .  A
C1200      C1218   1.502       .  S
C1201      C1202   1.409       .  A
C1201      H1205   1.082       .  S
C1202      C1203   1.414       .  A
C1203      H1206   1.082   1_655  S
C1207      C1208   1.409       .  A
C1207      C1212   1.386       .  A
C1207      C1986   1.466       .  S
C1208      C1209   1.419       .  A
C1208      H1213   1.083   1_455  S
C1209      C1210   1.418       .  A
C1210      C1211   1.409       .  A
C1210      H1214   1.083       .  S
C1211      C1212   1.386       .  A
C1211      C1445   1.466       .  S
C1212      H1215   1.086       .  S
C1216      C1217   1.408       .  A
C1216      C1221   1.404       .  A
C1216      C1268   1.480       .  S
C1217      C1218   1.408       .  A
C1217      H1222   1.083       .  S
C1218      C1219   1.409       .  A
C1219      C1220   1.409       .  A
C1219      H1223   1.083       .  S
C1220      C1221   1.404       .  A
C1221      H1224   1.084       .  S
O1225     Mg1227   2.116   1_455  S
O1225     Mg1233   2.140       .  S
O1225      C1260   1.239       .  S
C1226      H1265   1.081       .  S
C1226      O1239   1.239       .  S
C1226      O1263   1.271       .  A
Mg1227     O1256   2.135       .  S
Mg1227     O1271   2.299       .  S
Mg1227     O1267   2.262       .  S
Mg1227     O1238   2.297       .  S
O1228     Mg1270   2.139       .  S
O1228     Mg1253   2.109   1_655  S
O1228      C1249   1.239   1_655  S
O1229      C1260   1.272       .  A
O1229     Mg1253   2.295       .  S
C1230      C1815   1.475       .  S
C1230      O1232   1.273       .  A
C1230      O1244   1.276       .  A
O1231      C1259   1.273       .  A
O1231     Mg1233   2.299   1_655  S
O1232     Mg1264   2.251       .  S
Mg1233     O1239   2.103   1_455  S
Mg1233     O1247   2.239       .  S
Mg1233     O1235   2.302       .  S
C1234      O1272   1.272       .  A
C1234      O1240   1.276       .  A
O1235      C1242   1.276       .  A
H1236      C1249   1.081       .  S
C1237      H1262   1.081       .  S
C1237      O1251   1.239       .  S
C1237      O1252   1.272       .  A
O1238      C1261   1.272       .  A
O1239     Mg1253   2.137   1_655  S
O1240     Mg1270   2.305       .  S
C1241      O1254   1.272   1_455  A
C1241      O1246   1.275       .  A
C1242      C1402   1.473       .  S
C1242      O1269   1.271       .  A
Mg1243     O1250   2.118       .  S
Mg1243     O1251   2.137       .  S
Mg1243     O1244   2.307       .  S
Mg1243     O1245   2.295       .  S
Mg1243     O1272   2.251       .  S
O1245      C1249   1.272   1_655  A
O1246     Mg1253   2.291       .  S
O1247      C1266   1.270   1_455  A
O1248      C1268   1.276       .  A
O1248     Mg1264   2.314       .  S
O1250     Mg1264   2.136       .  S
O1250      C1261   1.239       .  S
O1251     Mg1270   2.117       .  S
O1252     Mg1264   2.298       .  S
Mg1253     O1269   2.250       .  S
O1254     Mg1270   2.254       .  S
H1255      C1260   1.081       .  S
O1256     Mg1264   2.118       .  S
O1256      C1259   1.240       .  S
H1257      C1259   1.081       .  S
H1258      C1261   1.081       .  S
O1263     Mg1270   2.293       .  S
C1266      C1945   1.469       .  S
C1266      O1271   1.276       .  A
O1267      C1268   1.273       .  A
C1273      C1274   1.397       .  A
C1273      C1278   1.415       .  A
C1274      C1275   1.393       .  A
C1274      H1279   1.085       .  S
C1275      C1276   1.406       .  A
C1276      C1277   1.412       .  A
C1276      H1280   1.083       .  S
C1277      C1278   1.418       .  A
C1277      C1284   1.508       .  S
C1278      H1281   1.083       .  S
C1282      C1283   1.413       .  A
C1282      C1287   1.410       .  A
C1282      C1293   1.504       .  S
C1283      C1284   1.410       .  A
C1283      H1288   1.081       .  S
C1284      C1285   1.407       .  A
C1285      C1286   1.416       .  A
C1285      H1289   1.082   1_554  S
C1286      C1287   1.412       .  A
C1286      C1302   1.501   1_554  S
C1287      H1290   1.083       .  S
C1291      C1292   1.415       .  A
C1291      C1296   1.398       .  A
C1291      C2598   1.475       .  S
C1292      C1293   1.418       .  A
C1292      H1297   1.083       .  S
C1293      C1294   1.410       .  A
C1294      C1295   1.403       .  A
C1294      H1298   1.083       .  S
C1295      C1296   1.392       .  A
C1295      C2190   1.471       .  S
C1296      H1299   1.085       .  S
C1300      C1301   1.404       .  A
C1300      C1305   1.392       .  A
C1301      C1302   1.410       .  A
C1301      H1306   1.083       .  S
C1302      C1303   1.416       .  A
C1303      C1304   1.413       .  A
C1303      H1307   1.083   1_556  S
C1304      C1305   1.396       .  A
C1304      C1350   1.473       .  S
C1305      H1308   1.085       .  S
O1309     Mg1311   2.112       .  S
O1309     Mg1317   2.104       .  S
O1309      C1344   1.239       .  S
C1310      H1349   1.081       .  S
C1310      O1323   1.240       .  S
C1310      O1347   1.275       .  A
Mg1311     O1340   2.102   1_556  S
Mg1311     O1355   2.334       .  S
Mg1311     O1351   2.215   1_556  S
Mg1311     O1322   2.312   1_556  S
O1312     Mg1354   2.104       .  S
O1312     Mg1337   2.123   1_554  S
O1312      C1333   1.240       .  S
O1313      C1344   1.274       .  A
O1313     Mg1337   2.310       .  S
C1314      C2101   1.466       .  S
C1314      O1316   1.268       .  A
C1314      O1328   1.273       .  A
O1315      C1343   1.274       .  A
O1315     Mg1317   2.311   1_554  S
O1316     Mg1348   2.214       .  S
Mg1317     O1323   2.122   1_556  S
Mg1317     O1331   2.234       .  S
Mg1317     O1319   2.331       .  S
C1318      O1356   1.269       .  A
C1318      O1324   1.274       .  A
O1319      C1326   1.274       .  A
H1320      C1333   1.081   1_556  S
C1321      H1346   1.081       .  S
C1321      O1335   1.240       .  S
C1321      O1336   1.274       .  A
O1322      C1345   1.274       .  A
O1323     Mg1337   2.106   1_554  S
O1324     Mg1354   2.333       .  S
C1325      O1338   1.269       .  A
C1325      O1330   1.273       .  A
C1326      C1359   1.471       .  S
C1326      O1353   1.269       .  A
Mg1327     O1334   2.117       .  S
Mg1327     O1335   2.102       .  S
Mg1327     O1328   2.331       .  S
Mg1327     O1329   2.314       .  S
Mg1327     O1356   2.226       .  S
O1329      C1333   1.274       .  A
O1330     Mg1337   2.330   1_554  S
O1331      C1350   1.270       .  A
O1332      C1352   1.272       .  A
O1332     Mg1348   2.328       .  S
O1334     Mg1348   2.102       .  S
O1334      C1345   1.240       .  S
O1335     Mg1354   2.119       .  S
O1336     Mg1348   2.312       .  S
Mg1337     O1353   2.231       .  S
O1338     Mg1354   2.228       .  S
H1339      C1344   1.081       .  S
O1340     Mg1348   2.115       .  S
O1340      C1343   1.239       .  S
H1341      C1343   1.081       .  S
H1342      C1345   1.081       .  S
O1347     Mg1354   2.313       .  S
C1350      O1355   1.274       .  A
O1351      C1352   1.268       .  A
C1352      C2482   1.466       .  S
C1357      C1358   1.392       .  A
C1357      C1362   1.405       .  A
C1358      C1359   1.396       .  A
C1358      H1363   1.085       .  S
C1359      C1360   1.412       .  A
C1360      C1361   1.416       .  A
C1360      H1364   1.083       .  S
C1361      C1362   1.412       .  A
C1361      C1377   1.504       .  S
C1362      H1365   1.083       .  S
C1366      C1367   1.404       .  A
C1366      C1371   1.394       .  A
C1367      C1368   1.409       .  A
C1367      H1372   1.083       .  S
C1368      C1369   1.416       .  A
C1368      C1379   1.501       .  S
C1369      C1370   1.411       .  A
C1369      H1373   1.083       .  S
C1370      C1371   1.397       .  A
C1370      C1472   1.473       .  S
C1371      H1374   1.085       .  S
C1375      C1376   1.410       .  A
C1375      C1380   1.411       .  A
C1375      C1386   1.502       .  S
C1376      C1377   1.410       .  A
C1376      H1381   1.081       .  S
C1377      C1378   1.408       .  A
C1378      C1379   1.414       .  A
C1378      H1382   1.082       .  S
C1379      C1380   1.410       .  A
C1380      H1383   1.082       .  S
C1384      C1385   1.407       .  A
C1384      C1389   1.402       .  A
C1384      C1698   1.478       .  S
C1385      C1386   1.408       .  A
C1385      H1390   1.083       .  S
C1386      C1387   1.409       .  A
C1387      C1388   1.411       .  A
C1387      H1391   1.083       .  S
C1388      C1389   1.404       .  A
C1388      C2682   1.480       .  S
C1389      H1392   1.084       .  S
C1393      C1394   1.410       .  A
C1393      C1398   1.388       .  A
C1394      C1395   1.419       .  A
C1394      H1399   1.083       .  S
C1395      C1396   1.419       .  A
C1395      C1422   1.507       .  S
C1396      C1397   1.410       .  A
C1396      H1400   1.083       .  S
C1397      C1398   1.388       .  A
C1397      C1529   1.469       .  S
C1398      H1401   1.086       .  S
C1402      C1403   1.394       .  A
C1402      C1407   1.404       .  A
C1403      C1404   1.399       .  A
C1403      H1408   1.085       .  S
C1404      C1405   1.414       .  A
C1404      C2394   1.477       .  S
C1405      C1406   1.417       .  A
C1405      H1409   1.083       .  S
C1406      C1407   1.410       .  A
C1406      C1424   1.503       .  S
C1407      H1410   1.083       .  S
C1411      C1412   1.392       .  A
C1411      C1416   1.404       .  A
C1411      C2658   1.471       .  S
C1412      C1413   1.397       .  A
C1412      H1417   1.085       .  S
C1413      C1414   1.414       .  A
C1413      C1434   1.475       .  S
C1414      C1415   1.417       .  A
C1414      H1418   1.083       .  S
C1415      C1416   1.410       .  A
C1415      C1420   1.503       .  S
C1416      H1419   1.083       .  S
C1420      C1421   1.415       .  A
C1420      C1425   1.411       .  A
C1421      C1422   1.409       .  A
C1421      H1426   1.082       .  S
C1422      C1423   1.409       .  A
C1423      C1424   1.415       .  A
C1423      H1427   1.082       .  S
C1424      C1425   1.411       .  A
C1425      H1428   1.083       .  S
O1429     Mg1431   2.126       .  S
O1429     Mg1437   2.103       .  S
O1429      C1464   1.240       .  S
C1430      H1469   1.081       .  S
C1430      O1443   1.240       .  S
C1430      O1467   1.274       .  A
Mg1431     O1460   2.103       .  S
Mg1431     O1475   2.334       .  S
Mg1431     O1471   2.232       .  S
Mg1431     O1442   2.313       .  S
O1432     Mg1474   2.104       .  S
O1432     Mg1457   2.125       .  S
O1432      C1453   1.240       .  S
O1433      C1464   1.274       .  A
O1433     Mg1457   2.312       .  S
C1434      O1436   1.271       .  A
C1434      O1448   1.275       .  A
O1435      C1463   1.275       .  A
O1435     Mg1437   2.317       .  S
O1436     Mg1468   2.237       .  S
Mg1437     O1443   2.109       .  S
Mg1437     O1451   2.215       .  S
Mg1437     O1439   2.348       .  S
C1438      C2457   1.471       .  S
C1438      O1476   1.270       .  A
C1438      O1444   1.274       .  A
O1439      C1446   1.275       .  A
H1440      C1453   1.081       .  S
C1441      H1466   1.081       .  S
C1441      O1455   1.239       .  S
C1441      O1456   1.274       .  A
O1442      C1465   1.274       .  A
O1443     Mg1457   2.099       .  S
O1444     Mg1474   2.339       .  S
C1445      O1458   1.269       .  A
C1445      O1450   1.272       .  A
C1446      C2500   1.478       .  S
C1446      O1473   1.270       .  A
Mg1447     O1454   2.117       .  S
Mg1447     O1455   2.103       .  S
Mg1447     O1448   2.342       .  S
Mg1447     O1449   2.313       .  S
Mg1447     O1476   2.223       .  S
O1449      C1453   1.275       .  A
O1450     Mg1457   2.327       .  S
O1451      C1470   1.269       .  A
O1452      C1472   1.275       .  A
O1452     Mg1468   2.339       .  S
O1454     Mg1468   2.104       .  S
O1454      C1465   1.240       .  S
O1455     Mg1474   2.117       .  S
O1456     Mg1468   2.311       .  S
Mg1457     O1473   2.238       .  S
O1458     Mg1474   2.217       .  S
H1459      C1464   1.081       .  S
O1460     Mg1468   2.125       .  S
O1460      C1463   1.240       .  S
H1461      C1463   1.081       .  S
H1462      C1465   1.081       .  S
O1467     Mg1474   2.310       .  S
C1470      O1475   1.273       .  A
O1471      C1472   1.269       .  A
C1477      C1478   1.414       .  A
C1477      C1482   1.397       .  A
C1478      C1479   1.417       .  A
C1478      H1483   1.083       .  S
C1479      C1480   1.409       .  A
C1479      C1488   1.502       .  S
C1480      C1481   1.404       .  A
C1480      H1484   1.083       .  S
C1481      C1482   1.393       .  A
C1481      C1566   1.471       .  S
C1482      H1485   1.085       .  S
C1486      C1487   1.409       .  A
C1486      C1491   1.409       .  A
C1486      C1499   1.507       .  S
C1487      C1488   1.415       .  A
C1487      H1492   1.082       .  S
C1488      C1489   1.411       .  A
C1489      C1490   1.411       .  A
C1489      H1493   1.083       .  S
C1490      C1491   1.415       .  A
C1490      C1506   1.502       .  S
C1491      H1494   1.082       .  S
C1495      C1496   1.387       .  A
C1495      C1500   1.410       .  A
C1495      C2230   1.468       .  S
C1496      C1497   1.387       .  A
C1496      H1501   1.086       .  S
C1497      C1498   1.410       .  A
C1497      C2574   1.468       .  S
C1498      C1499   1.419       .  A
C1498      H1502   1.083       .  S
C1499      C1500   1.419       .  A
C1500      H1503   1.083       .  S
C1504      C1505   1.414       .  A
C1504      C1509   1.399       .  A
C1504      C1522   1.477       .  S
C1505      C1506   1.417       .  A
C1505      H1510   1.083       .  S
C1506      C1507   1.410       .  A
C1507      C1508   1.404       .  A
C1507      H1511   1.083       .  S
C1508      C1509   1.395       .  A
C1508      C2214   1.473       .  S
C1509      H1512   1.085       .  S
O1513     Mg1515   2.127       .  S
O1513     Mg1521   2.107       .  S
O1513      C1548   1.240       .  S
C1514      H1553   1.081       .  S
C1514      O1527   1.240       .  S
C1514      O1551   1.275       .  A
Mg1515     O1544   2.104       .  S
Mg1515     O1559   2.344       .  S
Mg1515     O1555   2.243       .  S
Mg1515     O1526   2.314       .  S
O1516     Mg1558   2.105       .  S
O1516     Mg1541   2.125       .  S
O1516      C1537   1.240       .  S
O1517      C1548   1.275       .  A
O1517     Mg1541   2.316       .  S
C1518      C2105   1.467       .  S
C1518      O1520   1.269       .  A
C1518      O1532   1.273       .  A
O1519      C1547   1.274       .  A
O1519     Mg1521   2.312       .  S
O1520     Mg1552   2.219       .  S
Mg1521     O1527   2.126       .  S
Mg1521     O1535   2.236       .  S
Mg1521     O1523   2.339       .  S
C1522      O1560   1.270       .  A
C1522      O1528   1.276       .  A
O1523      C1530   1.275       .  A
H1524      C1537   1.081       .  S
C1525      H1550   1.081       .  S
C1525      O1539   1.240       .  S
C1525      O1540   1.274       .  A
O1526      C1549   1.275       .  A
O1527     Mg1541   2.103       .  S
O1528     Mg1558   2.349       .  S
C1529      O1542   1.269       .  A
C1529      O1534   1.273       .  A
C1530      O1557   1.269       .  A
Mg1531     O1538   2.129       .  S
Mg1531     O1539   2.102       .  S
Mg1531     O1532   2.326       .  S
Mg1531     O1533   2.312       .  S
Mg1531     O1560   2.241       .  S
O1533      C1537   1.274       .  A
O1534     Mg1541   2.335       .  S
O1535      C1554   1.270       .  A
O1536      C1556   1.275       .  A
O1536     Mg1552   2.343       .  S
O1538     Mg1552   2.107       .  S
O1538      C1549   1.240       .  S
O1539     Mg1558   2.113       .  S
O1540     Mg1552   2.312       .  S
Mg1541     O1557   2.233       .  S
O1542     Mg1558   2.222       .  S
H1543      C1548   1.081       .  S
O1544     Mg1552   2.118       .  S
O1544      C1547   1.240       .  S
H1545      C1547   1.081       .  S
H1546      C1549   1.081       .  S
O1551     Mg1558   2.316       .  S
C1554      O1559   1.276       .  A
O1555      C1556   1.271       .  A
C1556      C2475   1.477       .  S
O1561     Mg1563   2.108       .  S
O1561     Mg1569   2.141       .  S
O1561      C1596   1.239       .  S
C1562      H1601   1.081       .  S
C1562      O1575   1.239       .  S
C1562      O1599   1.271       .  A
Mg1563     O1592   2.136       .  S
Mg1563     O1607   2.298       .  S
Mg1563     O1603   2.254       .  S
Mg1563     O1574   2.296       .  S
O1564     Mg1606   2.135       .  S
O1564     Mg1589   2.113       .  S
O1564      C1585   1.239       .  S
O1565      C1596   1.272       .  A
O1565     Mg1589   2.295       .  S
C1566      O1568   1.270       .  A
C1566      O1580   1.276       .  A
O1567      C1595   1.271   1_655  A
O1567     Mg1569   2.292       .  S
O1568     Mg1600   2.243       .  S
Mg1569     O1575   2.109       .  S
Mg1569     O1583   2.245       .  S
Mg1569     O1571   2.288       .  S
C1570      O1608   1.272   1_655  A
C1570      O1576   1.277       .  A
O1571      C1578   1.274       .  A
H1572      C1585   1.081       .  S
C1573      H1598   1.081       .  S
C1573      O1587   1.239       .  S
C1573      O1588   1.272       .  A
O1574      C1597   1.272       .  A
O1575     Mg1589   2.138       .  S
O1576     Mg1606   2.311       .  S
C1577      O1590   1.274       .  A
C1577      O1582   1.276       .  A
C1578      C1657   1.469       .  S
C1578      O1605   1.271       .  A
Mg1579     O1586   2.113       .  S
Mg1579     O1587   2.137       .  S
Mg1579     O1580   2.299       .  S
Mg1579     O1581   2.296   1_455  S
Mg1579     O1608   2.251       .  S
O1581      C1585   1.272       .  A
O1582     Mg1589   2.306       .  S
O1583      C1602   1.271       .  A
O1584      C1604   1.276       .  A
O1584     Mg1600   2.299       .  S
O1586     Mg1600   2.138       .  S
O1586      C1597   1.239   1_455  S
O1587     Mg1606   2.119   1_455  S
O1588     Mg1600   2.298       .  S
Mg1589     O1605   2.245       .  S
O1590     Mg1606   2.261       .  S
H1591      C1596   1.081       .  S
O1592     Mg1600   2.103   1_655  S
O1592      C1595   1.239   1_655  S
H1593      C1595   1.081       .  S
H1594      C1597   1.081       .  S
O1599     Mg1606   2.295       .  S
C1602      O1607   1.276       .  A
O1603      C1604   1.272   1_655  A
C1604      C2334   1.474       .  S
O1609     Mg1611   2.126       .  S
O1609     Mg1617   2.137       .  S
O1609      C1644   1.240       .  S
C1610      H1649   1.081       .  S
C1610      O1623   1.239       .  S
C1610      O1647   1.273       .  A
Mg1611     O1640   2.135       .  S
Mg1611     O1655   2.320       .  S
Mg1611     O1651   2.262       .  S
Mg1611     O1622   2.300       .  S
O1612     Mg1654   2.136       .  S
O1612     Mg1637   2.122       .  S
O1612      C1633   1.239       .  S
O1613      C1644   1.273       .  A
O1613     Mg1637   2.300       .  S
C1614      C1840   1.477       .  S
C1614      O1616   1.273       .  A
C1614      O1628   1.277       .  A
O1615      C1643   1.273       .  A
O1615     Mg1617   2.300       .  S
O1616     Mg1648   2.254       .  S
Mg1617     O1623   2.125       .  S
Mg1617     O1631   2.259       .  S
Mg1617     O1619   2.318       .  S
C1618      C2110   1.481       .  S
C1618      O1656   1.274       .  A
C1618      O1624   1.277       .  A
O1619      C1626   1.277       .  A
H1620      C1633   1.081       .  S
C1621      H1646   1.081       .  S
C1621      O1635   1.240       .  S
C1621      O1636   1.273       .  A
O1622      C1645   1.273       .  A
O1623     Mg1637   2.136       .  S
O1624     Mg1654   2.319       .  S
C1625      O1638   1.274       .  A
C1625      O1630   1.277       .  A
C1626      O1653   1.273       .  A
Mg1627     O1634   2.126       .  S
Mg1627     O1635   2.138       .  S
Mg1627     O1628   2.314       .  S
Mg1627     O1629   2.298       .  S
Mg1627     O1656   2.261       .  S
O1629      C1633   1.272       .  A
O1630     Mg1637   2.317       .  S
O1631      C1650   1.273       .  A
O1632      C1652   1.277       .  A
O1632     Mg1648   2.318       .  S
O1634     Mg1648   2.137       .  S
O1634      C1645   1.239       .  S
O1635     Mg1654   2.125       .  S
O1636     Mg1648   2.300       .  S
Mg1637     O1653   2.253       .  S
O1638     Mg1654   2.260       .  S
H1639      C1644   1.081       .  S
O1640     Mg1648   2.124       .  S
O1640      C1643   1.239       .  S
H1641      C1643   1.081       .  S
H1642      C1645   1.081       .  S
O1647     Mg1654   2.300       .  S
C1650      O1655   1.278       .  A
O1651      C1652   1.274       .  A
C1652      C1684   1.480       .  S
C1657      C1658   1.393       .  A
C1657      C1662   1.402       .  A
C1658      C1659   1.397       .  A
C1658      H1663   1.085       .  S
C1659      C1660   1.412       .  A
C1660      C1661   1.415       .  A
C1660      H1664   1.083       .  S
C1661      C1662   1.408       .  A
C1661      C1668   1.499       .  S
C1662      H1665   1.083       .  S
C1666      C1667   1.411       .  A
C1666      C1671   1.409       .  A
C1666      C1677   1.497       .  S
C1667      C1668   1.408       .  A
C1667      H1672   1.082       .  S
C1668      C1669   1.411       .  A
C1669      C1670   1.408       .  A
C1669      H1673   1.082       .  S
C1670      C1671   1.406       .  A
C1670      C1688   1.501       .  S
C1671      H1674   1.081       .  S
C1675      C1676   1.406       .  A
C1675      C1680   1.402       .  A
C1675      C2182   1.475       .  S
C1676      C1677   1.407       .  A
C1676      H1681   1.083       .  S
C1677      C1678   1.406       .  A
C1678      C1679   1.408       .  A
C1678      H1682   1.083       .  S
C1679      C1680   1.403       .  A
C1679      C2384   1.476       .  S
C1680      H1683   1.084       .  S
C1684      C1685   1.405       .  A
C1684      C1689   1.408       .  A
C1685      C1686   1.405       .  A
C1685      H1690   1.084       .  S
C1686      C1687   1.408       .  A
C1687      C1688   1.408       .  A
C1687      H1691   1.083       .  S
C1688      C1689   1.407       .  A
C1689      H1692   1.083       .  S
O1693     Mg1695   2.122       .  S
O1693     Mg1701   2.135       .  S
O1693      C1728   1.239       .  S
C1694      H1733   1.081       .  S
C1694      O1707   1.239       .  S
C1694      O1731   1.273       .  A
Mg1695     O1724   2.138       .  S
Mg1695     O1739   2.309       .  S
Mg1695     O1735   2.254       .  S
Mg1695     O1706   2.295       .  S
O1696     Mg1738   2.139       .  S
O1696     Mg1721   2.116       .  S
O1696      C1717   1.240       .  S
O1697      C1728   1.272       .  A
O1697     Mg1721   2.299       .  S
C1698      O1700   1.274       .  A
C1698      O1712   1.276       .  A
O1699      C1727   1.272       .  A
O1699     Mg1701   2.298       .  S
O1700     Mg1732   2.259       .  S
Mg1701     O1707   2.122       .  S
Mg1701     O1715   2.260       .  S
Mg1701     O1703   2.315       .  S
C1702      C2067   1.473       .  S
C1702      O1740   1.271       .  A
C1702      O1708   1.276       .  A
O1703      C1710   1.277       .  A
H1704      C1717   1.081       .  S
C1705      H1730   1.081       .  S
C1705      O1719   1.239       .  S
C1705      O1720   1.272       .  A
O1706      C1729   1.272       .  A
O1707     Mg1721   2.136       .  S
O1708     Mg1738   2.302       .  S
C1709      C2466   1.474       .  S
C1709      O1722   1.271       .  A
C1709      O1714   1.277       .  A
C1710      O1737   1.273       .  A
Mg1711     O1718   2.114       .  S
Mg1711     O1719   2.137       .  S
Mg1711     O1712   2.310       .  S
Mg1711     O1713   2.298       .  S
Mg1711     O1740   2.249       .  S
O1713      C1717   1.273       .  A
O1714     Mg1721   2.309       .  S
O1715      C1734   1.274       .  A
O1716      C1736   1.277       .  A
O1716     Mg1732   2.312       .  S
O1718     Mg1732   2.136       .  S
O1718      C1729   1.239       .  S
O1719     Mg1738   2.110       .  S
O1720     Mg1732   2.296       .  S
Mg1721     O1737   2.259       .  S
O1722     Mg1738   2.247       .  S
H1723      C1728   1.081       .  S
O1724     Mg1732   2.121       .  S
O1724      C1727   1.240       .  S
H1725      C1727   1.081       .  S
H1726      C1729   1.081       .  S
O1731     Mg1738   2.299       .  S
C1734      O1739   1.276       .  A
O1735      C1736   1.273       .  A
C1736      C1768   1.477       .  S
C1741      C1742   1.400       .  A
C1741      C1746   1.413       .  A
C1742      C1743   1.396       .  A
C1742      H1747   1.085       .  S
C1743      C1744   1.404       .  A
C1744      C1745   1.410       .  A
C1744      H1748   1.083       .  S
C1745      C1746   1.416       .  A
C1745      C1752   1.502       .  S
C1746      H1749   1.083       .  S
C1750      C1751   1.409       .  A
C1750      C1755   1.410       .  A
C1750      C1772   1.504       .  S
C1751      C1752   1.411       .  A
C1751      H1756   1.082       .  S
C1752      C1753   1.410       .  A
C1753      C1754   1.413       .  A
C1753      H1757   1.083       .  S
C1754      C1755   1.411       .  A
C1754      C1761   1.500       .  S
C1755      H1758   1.083       .  S
C1759      C1760   1.407       .  A
C1759      C1764   1.387       .  A
C1759      C1854   1.465       .  S
C1760      C1761   1.417       .  A
C1760      H1765   1.083       .  S
C1761      C1762   1.417       .  A
C1762      C1763   1.408       .  A
C1762      H1766   1.083       .  S
C1763      C1764   1.387       .  A
C1763      C1997   1.465       .  S
C1764      H1767   1.086       .  S
C1768      C1769   1.401       .  A
C1768      C1773   1.409       .  A
C1769      C1770   1.402       .  A
C1769      H1774   1.084       .  S
C1770      C1771   1.411       .  A
C1771      C1772   1.409       .  A
C1771      H1775   1.083       .  S
C1772      C1773   1.409       .  A
C1773      H1776   1.083       .  S
C1777      C1778   1.404       .  A
C1777      C1782   1.394       .  A
C1778      C1779   1.410       .  A
C1778      H1783   1.083       .  S
C1779      C1780   1.417       .  A
C1779      C1788   1.502       .  S
C1780      C1781   1.414       .  A
C1780      H1784   1.083       .  S
C1781      C1782   1.398       .  A
C1781      C2406   1.476       .  S
C1782      H1785   1.085       .  S
C1786      C1787   1.409   1_565  A
C1786      C1791   1.410       .  A
C1786      C1799   1.508       .  S
C1787      C1788   1.415       .  A
C1787      H1792   1.082       .  S
C1788      C1789   1.411       .  A
C1789      C1790   1.411       .  A
C1789      H1793   1.083       .  S
C1790      C1791   1.415   1_545  A
C1790      C1808   1.503       .  S
C1791      H1794   1.082       .  S
C1795      C1796   1.389       .  A
C1795      C1800   1.410       .  A
C1796      C1797   1.389       .  A
C1796      H1801   1.086       .  S
C1797      C1798   1.410       .  A
C1798      C1799   1.419       .  A
C1798      H1802   1.083       .  S
C1799      C1800   1.420       .  A
C1800      H1803   1.083       .  S
C1804      C1805   1.397   1_545  A
C1804      C1809   1.414       .  A
C1804      C2238   1.475       .  S
C1805      C1806   1.392       .  A
C1805      H1810   1.085       .  S
C1806      C1807   1.404       .  A
C1807      C1808   1.410   1_565  A
C1807      H1811   1.083       .  S
C1808      C1809   1.418       .  A
C1809      H1812   1.083       .  S
C1813      C1814   1.402       .  A
C1813      C1818   1.409       .  A
C1814      C1815   1.402       .  A
C1814      H1819   1.084       .  S
C1815      C1816   1.407       .  A
C1816      C1817   1.407       .  A
C1816      H1820   1.083       .  S
C1817      C1818   1.409       .  A
C1817      C1833   1.501       .  S
C1818      H1821   1.083       .  S
C1822      C1823   1.399       .  A
C1822      C1827   1.411       .  A
C1822      C1858   1.474       .  S
C1823      C1824   1.395       .  A
C1823      H1828   1.085       .  S
C1824      C1825   1.402       .  A
C1825      C1826   1.408       .  A
C1825      H1829   1.083       .  S
C1826      C1827   1.415       .  A
C1826      C1835   1.499       .  S
C1827      H1830   1.083       .  S
C1831      C1832   1.409       .  A
C1831      C1836   1.410       .  A
C1831      C1842   1.496       .  S
C1832      C1833   1.407       .  A
C1832      H1837   1.082       .  S
C1833      C1834   1.409       .  A
C1834      C1835   1.411       .  A
C1834      H1838   1.081       .  S
C1835      C1836   1.406       .  A
C1836      H1839   1.082       .  S
C1840      C1841   1.407       .  A
C1840      C1845   1.403       .  A
C1841      C1842   1.406       .  A
C1841      H1846   1.083       .  S
C1842      C1843   1.406       .  A
C1843      C1844   1.407       .  A
C1843      H1847   1.083       .  S
C1844      C1845   1.404       .  A
C1844      C2646   1.476       .  S
C1845      H1848   1.084       .  S
O1849     Mg1851   2.122       .  S
O1849     Mg1857   2.108       .  S
O1849      C1884   1.240       .  S
C1850      H1889   1.081       .  S
C1850      O1863   1.239       .  S
C1850      O1887   1.275       .  A
Mg1851     O1880   2.104       .  S
Mg1851     O1895   2.339       .  S
Mg1851     O1891   2.239       .  S
Mg1851     O1862   2.314       .  S
O1852     Mg1894   2.106       .  S
O1852     Mg1877   2.124       .  S
O1852      C1873   1.240       .  S
O1853      C1884   1.275       .  A
O1853     Mg1877   2.315       .  S
C1854      O1856   1.268       .  A
C1854      O1868   1.272       .  A
O1855      C1883   1.274       .  A
O1855     Mg1857   2.309       .  S
O1856     Mg1888   2.215       .  S
Mg1857     O1863   2.129       .  S
Mg1857     O1871   2.237       .  S
Mg1857     O1859   2.327       .  S
C1858      O1896   1.269       .  A
C1858      O1864   1.276       .  A
O1859      C1866   1.273       .  A
H1860      C1873   1.081       .  S
C1861      H1886   1.081       .  S
C1861      O1875   1.240       .  S
C1861      O1876   1.275       .  A
O1862      C1885   1.274       .  A
O1863     Mg1877   2.106       .  S
O1864     Mg1894   2.344       .  S
C1865      C2076   1.474       .  S
C1865      O1878   1.270       .  A
C1865      O1870   1.275       .  A
C1866      O1893   1.269       .  A
Mg1867     O1874   2.128       .  S
Mg1867     O1875   2.103       .  S
Mg1867     O1868   2.324       .  S
Mg1867     O1869   2.312       .  S
Mg1867     O1896   2.234       .  S
O1869      C1873   1.274       .  A
O1870     Mg1877   2.341       .  S
O1871      C1890   1.270       .  A
O1872      C1892   1.275       .  A
O1872     Mg1888   2.342       .  S
O1874     Mg1888   2.105       .  S
O1874      C1885   1.240       .  S
O1875     Mg1894   2.119       .  S
O1876     Mg1888   2.315       .  S
Mg1877     O1893   2.232       .  S
O1878     Mg1894   2.233       .  S
H1879      C1884   1.081       .  S
O1880     Mg1888   2.114       .  S
O1880      C1883   1.239       .  S
H1881      C1883   1.081       .  S
H1882      C1885   1.081       .  S
O1887     Mg1894   2.315       .  S
C1890      O1895   1.275       .  A
O1891      C1892   1.271       .  A
C1892      C1972   1.476       .  S
O1897     Mg1899   2.121   1_455  S
O1897     Mg1905   2.135       .  S
O1897      C1932   1.240       .  S
C1898      H1937   1.081       .  S
C1898      O1911   1.239       .  S
C1898      O1935   1.272       .  A
Mg1899     O1928   2.137       .  S
Mg1899     O1943   2.316       .  S
Mg1899     O1939   2.261       .  S
Mg1899     O1910   2.298       .  S
O1900     Mg1942   2.138       .  S
O1900     Mg1925   2.107   1_655  S
O1900      C1921   1.239   1_655  S
O1901      C1932   1.273       .  A
O1901     Mg1925   2.300       .  S
C1902      O1904   1.274       .  A
C1902      O1916   1.275       .  A
O1903      C1931   1.272       .  A
O1903     Mg1905   2.299   1_655  S
O1904     Mg1936   2.260       .  S
Mg1905     O1911   2.114   1_455  S
Mg1905     O1919   2.249       .  S
Mg1905     O1907   2.301       .  S
C1906      C2307   1.476       .  S
C1906      O1944   1.272       .  A
C1906      O1912   1.276       .  A
O1907      C1914   1.276       .  A
H1908      C1921   1.081       .  S
C1909      H1934   1.081       .  S
C1909      O1923   1.239       .  S
C1909      O1924   1.272       .  A
O1910      C1933   1.272       .  A
O1911     Mg1925   2.138   1_655  S
O1912     Mg1942   2.310       .  S
C1913      C1963   1.475       .  S
C1913      O1926   1.272   1_455  A
C1913      O1918   1.276       .  A
C1914      O1941   1.271       .  A
Mg1915     O1922   2.120       .  S
Mg1915     O1923   2.136       .  S
Mg1915     O1916   2.302       .  S
Mg1915     O1917   2.293       .  S
Mg1915     O1944   2.251       .  S
O1917      C1921   1.272   1_655  A
O1918     Mg1925   2.305       .  S
O1919      C1938   1.272   1_455  A
O1920      C1940   1.277       .  A
O1920     Mg1936   2.312       .  S
O1922     Mg1936   2.136       .  S
O1922      C1933   1.239       .  S
O1923     Mg1942   2.114       .  S
O1924     Mg1936   2.296       .  S
Mg1925     O1941   2.248       .  S
O1926     Mg1942   2.253       .  S
H1927      C1932   1.081       .  S
O1928     Mg1936   2.122       .  S
O1928      C1931   1.239       .  S
H1929      C1931   1.081       .  S
H1930      C1933   1.081       .  S
O1935     Mg1942   2.297       .  S
C1938      O1943   1.277       .  A
O1939      C1940   1.274       .  A
C1940      C2056   1.478       .  S
C1945      C1946   1.405       .  A
C1945      C1950   1.391       .  A
C1946      C1947   1.410       .  A
C1946      H1951   1.083       .  S
C1947      C1948   1.416       .  A
C1947      C1956   1.501       .  S
C1948      C1949   1.413       .  A
C1948      H1952   1.083       .  S
C1949      C1950   1.395       .  A
C1949      C1990   1.472       .  S
C1950      H1953   1.085       .  S
C1954      C1955   1.410       .  A
C1954      C1959   1.412       .  A
C1954      C1974   1.504       .  S
C1955      C1956   1.413       .  A
C1955      H1960   1.083       .  S
C1956      C1957   1.416       .  A
C1957      C1958   1.408       .  A
C1957      H1961   1.082   1_655  S
C1958      C1959   1.410       .  A
C1958      C1965   1.509   1_655  S
C1959      H1962   1.081       .  S
C1963      C1964   1.406       .  A
C1963      C1968   1.394       .  A
C1964      C1965   1.412       .  A
C1964      H1969   1.083   1_455  S
C1965      C1966   1.418       .  A
C1966      C1967   1.415       .  A
C1966      H1970   1.083       .  S
C1967      C1968   1.398       .  A
C1967      C2432   1.477       .  S
C1968      H1971   1.085       .  S
C1972      C1973   1.415       .  A
C1972      C1977   1.398       .  A
C1973      C1974   1.418       .  A
C1973      H1978   1.083       .  S
C1974      C1975   1.410       .  A
C1975      C1976   1.402       .  A
C1975      H1979   1.083       .  S
C1976      C1977   1.392       .  A
C1977      H1980   1.085       .  S
O1981     Mg1983   2.120   1_655  S
O1981     Mg1989   2.102       .  S
O1981      C2016   1.240       .  S
C1982      H2021   1.081       .  S
C1982      O1995   1.240       .  S
C1982      O2019   1.274       .  A
Mg1983     O2012   2.098   1_455  S
Mg1983     O2027   2.321   1_455  S
Mg1983     O2023   2.230       .  S
Mg1983     O1994   2.313       .  S
O1984     Mg2026   2.103       .  S
O1984     Mg2009   2.114       .  S
O1984      C2005   1.239       .  S
O1985      C2016   1.274       .  A
O1985     Mg2009   2.310       .  S
C1986      O1988   1.269       .  A
C1986      O2000   1.273       .  A
O1987      C2015   1.274       .  A
O1987     Mg1989   2.312       .  S
O1988     Mg2020   2.211       .  S
Mg1989     O1995   2.109       .  S
Mg1989     O2003   2.209       .  S
Mg1989     O1991   2.336       .  S
C1990      O2028   1.270       .  A
C1990      O1996   1.273       .  A
O1991      C1998   1.273       .  A
H1992      C2005   1.081       .  S
C1993      H2018   1.081       .  S
C1993      O2007   1.240       .  S
C1993      O2008   1.274       .  A
O1994      C2017   1.274       .  A
O1995     Mg2009   2.100       .  S
O1996     Mg2026   2.332       .  S
C1997      O2010   1.269       .  A
C1997      O2002   1.273       .  A
C1998      O2025   1.269       .  A
Mg1999     O2006   2.124   1_655  S
Mg1999     O2007   2.101       .  S
Mg1999     O2000   2.329   1_655  S
Mg1999     O2001   2.310       .  S
Mg1999     O2028   2.233       .  S
O2001      C2005   1.274       .  A
O2002     Mg2009   2.328       .  S
O2003      C2022   1.268       .  A
O2004      C2024   1.275       .  A
O2004     Mg2020   2.345       .  S
O2006     Mg2020   2.105       .  S
O2006      C2017   1.240       .  S
O2007     Mg2026   2.112       .  S
O2008     Mg2020   2.312   1_655  S
Mg2009     O2025   2.221       .  S
O2010     Mg2026   2.213       .  S
H2011      C2016   1.081   1_455  S
O2012     Mg2020   2.108   1_655  S
O2012      C2015   1.240       .  S
H2013      C2015   1.081       .  S
H2014      C2017   1.081       .  S
O2019     Mg2026   2.309       .  S
C2022      C2049   1.464       .  S
C2022      O2027   1.271       .  A
O2023      C2024   1.268       .  A
C2024      C2437   1.474       .  S
C2029      C2030   1.405       .  A
C2029      C2034   1.410       .  A
C2029      C2518   1.482       .  S
C2030      C2031   1.405       .  A
C2030      H2035   1.084       .  S
C2031      C2032   1.408       .  A
C2032      C2033   1.409       .  A
C2032      H2036   1.083   1_455  S
C2033      C2034   1.408       .  A
C2033      C2040   1.502   1_455  S
C2034      H2037   1.083       .  S
C2038      C2039   1.411       .  A
C2038      C2043   1.410       .  A
C2038      C2051   1.501   1_554  S
C2039      C2040   1.411       .  A
C2039      H2044   1.082   1_654  S
C2040      C2041   1.409       .  A
C2041      C2042   1.409       .  A
C2041      H2045   1.081       .  S
C2042      C2043   1.411       .  A
C2042      C2060   1.502       .  S
C2043      H2046   1.082       .  S
C2047      C2048   1.386       .  A
C2047      C2052   1.407       .  A
C2048      C2049   1.386       .  A
C2048      H2053   1.086       .  S
C2049      C2050   1.408       .  A
C2050      C2051   1.417       .  A
C2050      H2054   1.083       .  S
C2051      C2052   1.417       .  A
C2052      H2055   1.083   1_556  S
C2056      C2057   1.402       .  A
C2056      C2061   1.408       .  A
C2057      C2058   1.403       .  A
C2057      H2062   1.084       .  S
C2058      C2059   1.409       .  A
C2059      C2060   1.408       .  A
C2059      H2063   1.083       .  S
C2060      C2061   1.409       .  A
C2061      H2064   1.083       .  S
C2065      C2066   1.399       .  A
C2065      C2070   1.414       .  A
C2065      C2405   1.477       .  S
C2066      C2067   1.394       .  A
C2066      H2071   1.085       .  S
C2067      C2068   1.404       .  A
C2068      C2069   1.410       .  A
C2068      H2072   1.083       .  S
C2069      C2070   1.418       .  A
C2069      C2092   1.505       .  S
C2070      H2073   1.083       .  S
C2074      C2075   1.392       .  A
C2074      C2079   1.404       .  A
C2074      C2684   1.469       .  S
C2075      C2076   1.397       .  A
C2075      H2080   1.085       .  S
C2076      C2077   1.414       .  A
C2077      C2078   1.418       .  A
C2077      H2081   1.083       .  S
C2078      C2079   1.410       .  A
C2078      C2094   1.504       .  S
C2079      H2082   1.083       .  S
C2083      C2084   1.403       .  A
C2083      C2088   1.409       .  A
C2084      C2085   1.403       .  A
C2084      H2089   1.084       .  S
C2085      C2086   1.408       .  A
C2086      C2087   1.407       .  A
C2086      H2090   1.083       .  S
C2087      C2088   1.407       .  A
C2087      C2096   1.499       .  S
C2088      H2091   1.083       .  S
C2092      C2093   1.412       .  A
C2092      C2097   1.408       .  A
C2093      C2094   1.411       .  A
C2093      H2098   1.081       .  S
C2094      C2095   1.406       .  A
C2095      C2096   1.413       .  A
C2095      H2099   1.082       .  S
C2096      C2097   1.413       .  A
C2097      H2100   1.082       .  S
C2101      C2102   1.407       .  A
C2101      C2106   1.388       .  A
C2102      C2103   1.417       .  A
C2102      H2107   1.083       .  S
C2103      C2104   1.417       .  A
C2103      C2132   1.501       .  S
C2104      C2105   1.408       .  A
C2104      H2108   1.083       .  S
C2105      C2106   1.388       .  A
C2106      H2109   1.086       .  S
C2110      C2111   1.404       .  A
C2110      C2115   1.409       .  A
C2111      C2112   1.405       .  A
C2111      H2116   1.084       .  S
C2112      C2113   1.408       .  A
C2113      C2114   1.407       .  A
C2113      H2117   1.083       .  S
C2114      C2115   1.408       .  A
C2114      C2130   1.501       .  S
C2115      H2118   1.083       .  S
C2119      C2120   1.409       .  A
C2119      C2124   1.401       .  A
C2119      C2650   1.477       .  S
C2120      C2121   1.409       .  A
C2120      H2125   1.083       .  S
C2121      C2122   1.408       .  A
C2121      C2128   1.502       .  S
C2122      C2123   1.410       .  A
C2122      H2126   1.083       .  S
C2123      C2124   1.401       .  A
C2123      C2216   1.477       .  S
C2124      H2127   1.084       .  S
C2128      C2129   1.410       .  A
C2128      C2133   1.412       .  A
C2129      C2130   1.409       .  A
C2129      H2134   1.082       .  S
C2130      C2131   1.410       .  A
C2131      C2132   1.410       .  A
C2131      H2135   1.082       .  S
C2132      C2133   1.411       .  A
C2133      H2136   1.082       .  S
C2137      C2138   1.403       .  A
C2137      C2142   1.408       .  A
C2138      C2139   1.402       .  A
C2138      H2143   1.084       .  S
C2139      C2140   1.407       .  A
C2140      C2141   1.407       .  A
C2140      H2144   1.083       .  S
C2141      C2142   1.407       .  A
C2141      C2157   1.498       .  S
C2142      H2145   1.083       .  S
C2146      C2147   1.410       .  A
C2146      C2151   1.402       .  A
C2147      C2148   1.410       .  A
C2147      H2152   1.083       .  S
C2148      C2149   1.408       .  A
C2148      C2155   1.502       .  S
C2149      C2150   1.407       .  A
C2149      H2153   1.083       .  S
C2150      C2151   1.401       .  A
C2150      C2178   1.476       .  S
C2151      H2154   1.084       .  S
C2155      C2156   1.407       .  A
C2155      C2160   1.409       .  A
C2156      C2157   1.410       .  A
C2156      H2161   1.081       .  S
C2157      C2158   1.411       .  A
C2158      C2159   1.407       .  A
C2158      H2162   1.082       .  S
C2159      C2160   1.412       .  A
C2159      C2166   1.501       .  S
C2160      H2163   1.081       .  S
C2164      C2165   1.412       .  A
C2164      C2169   1.398       .  A
C2165      C2166   1.416       .  A
C2165      H2170   1.083       .  S
C2166      C2167   1.409       .  A
C2167      C2168   1.402       .  A
C2167      H2171   1.083       .  S
C2168      C2169   1.394       .  A
C2168      C2657   1.471       .  S
C2169      H2172   1.085       .  S
O2173     Mg2175   2.111       .  S
O2173     Mg2181   2.138       .  S
O2173      C2208   1.239       .  S
C2174      H2213   1.081       .  S
C2174      O2187   1.239       .  S
C2174      O2211   1.271       .  A
Mg2175     O2204   2.135       .  S
Mg2175     O2219   2.301       .  S
Mg2175     O2215   2.247       .  S
Mg2175     O2186   2.300       .  S
O2176     Mg2218   2.136       .  S
O2176     Mg2201   2.112       .  S
O2176      C2197   1.239       .  S
O2177      C2208   1.272       .  A
O2177     Mg2201   2.296       .  S
C2178      O2180   1.273       .  A
C2178      O2192   1.277       .  A
O2179      C2207   1.272       .  A
O2179     Mg2181   2.298       .  S
O2180     Mg2212   2.253       .  S
Mg2181     O2187   2.109       .  S
Mg2181     O2195   2.251       .  S
Mg2181     O2183   2.297       .  S
C2182      O2220   1.273       .  A
C2182      O2188   1.275       .  A
O2183      C2190   1.276       .  A
H2184      C2197   1.081       .  S
C2185      H2210   1.081       .  S
C2185      O2199   1.239       .  S
C2185      O2200   1.273       .  A
O2186      C2209   1.272       .  A
O2187     Mg2201   2.139       .  S
O2188     Mg2218   2.302       .  S
C2189      C2296   1.477       .  S
C2189      O2202   1.273       .  A
C2189      O2194   1.275       .  A
C2190      O2217   1.271       .  A
Mg2191     O2198   2.123       .  S
Mg2191     O2199   2.138       .  S
Mg2191     O2192   2.311       .  S
Mg2191     O2193   2.295       .  S
Mg2191     O2220   2.258       .  S
O2193      C2197   1.272       .  A
O2194     Mg2201   2.306       .  S
O2195      C2214   1.271       .  A
O2196      C2216   1.278       .  A
O2196     Mg2212   2.319       .  S
O2198     Mg2212   2.136       .  S
O2198      C2209   1.239       .  S
O2199     Mg2218   2.124       .  S
O2200     Mg2212   2.301       .  S
Mg2201     O2217   2.246       .  S
O2202     Mg2218   2.258       .  S
H2203      C2208   1.081       .  S
O2204     Mg2212   2.118       .  S
O2204      C2207   1.239       .  S
H2205      C2207   1.081       .  S
H2206      C2209   1.081       .  S
O2211     Mg2218   2.292       .  S
C2214      O2219   1.275       .  A
O2215      C2216   1.271       .  A
O2221     Mg2223   2.128       .  S
O2221     Mg2229   2.105       .  S
O2221      C2256   1.240       .  S
C2222      H2261   1.081       .  S
C2222      O2235   1.240       .  S
C2222      O2259   1.274   1_545  A
Mg2223     O2252   2.105       .  S
Mg2223     O2267   2.333       .  S
Mg2223     O2263   2.234       .  S
Mg2223     O2234   2.311       .  S
O2224     Mg2266   2.103       .  S
O2224     Mg2249   2.120       .  S
O2224      C2245   1.240       .  S
O2225      C2256   1.275   1_565  A
O2225     Mg2249   2.316       .  S
C2226      C2607   1.476       .  S
C2226      O2228   1.271   1_565  A
C2226      O2240   1.275       .  A
O2227      C2255   1.275       .  A
O2227     Mg2229   2.313       .  S
O2228     Mg2260   2.238       .  S
Mg2229     O2235   2.119       .  S
Mg2229     O2243   2.221       .  S
Mg2229     O2231   2.343       .  S
C2230      O2268   1.269       .  A
C2230      O2236   1.272       .  A
O2231      C2238   1.275       .  A
H2232      C2245   1.081       .  S
C2233      H2258   1.081       .  S
C2233      O2247   1.240       .  S
C2233      O2248   1.275   1_565  A
O2234      C2257   1.274   1_545  A
O2235     Mg2249   2.103   1_545  S
O2236     Mg2266   2.328       .  S
C2237      C2332   1.475       .  S
C2237      O2250   1.269       .  A
C2237      O2242   1.276       .  A
C2238      O2265   1.270   1_545  A
Mg2239     O2246   2.116       .  S
Mg2239     O2247   2.105       .  S
Mg2239     O2240   2.345       .  S
Mg2239     O2241   2.314       .  S
Mg2239     O2268   2.221       .  S
O2241      C2245   1.275       .  A
O2242     Mg2249   2.345       .  S
O2243      C2262   1.269       .  A
O2244      C2264   1.275       .  A
O2244     Mg2260   2.341       .  S
O2246     Mg2260   2.103   1_565  S
O2246      C2257   1.240       .  S
O2247     Mg2266   2.127       .  S
O2248     Mg2260   2.314       .  S
Mg2249     O2265   2.236       .  S
O2250     Mg2266   2.234       .  S
H2251      C2256   1.081       .  S
O2252     Mg2260   2.122       .  S
O2252      C2255   1.240       .  S
H2253      C2255   1.081       .  S
H2254      C2257   1.081       .  S
O2259     Mg2266   2.313       .  S
C2262      O2267   1.273       .  A
O2263      C2264   1.270       .  A
C2264      C2287   1.473       .  S
C2269      C2270   1.408       .  A
C2269      C2274   1.402   1_545  A
C2270      C2271   1.408   1_545  A
C2270      H2275   1.083       .  S
C2271      C2272   1.409       .  A
C2271      C2280   1.502       .  S
C2272      C2273   1.409       .  A
C2272      H2276   1.083       .  S
C2273      C2274   1.402       .  A
C2273      C2346   1.478       .  S
C2274      H2277   1.084       .  S
C2278      C2279   1.410       .  A
C2278      C2283   1.411       .  A
C2278      C2298   1.498       .  S
C2279      C2280   1.407       .  A
C2279      H2284   1.081       .  S
C2280      C2281   1.409   1_565  A
C2281      C2282   1.412       .  A
C2281      H2285   1.081       .  S
C2282      C2283   1.407   1_545  A
C2282      C2291   1.500       .  S
C2283      H2286   1.082       .  S
C2287      C2288   1.397       .  A
C2287      C2292   1.412       .  A
C2288      C2289   1.393       .  A
C2288      H2293   1.085       .  S
C2289      C2290   1.402       .  A
C2290      C2291   1.409       .  A
C2290      H2294   1.083       .  S
C2291      C2292   1.416       .  A
C2292      H2295   1.083       .  S
C2296      C2297   1.406       .  A
C2296      C2301   1.403       .  A
C2297      C2298   1.407       .  A
C2297      H2302   1.083       .  S
C2298      C2299   1.407       .  A
C2299      C2300   1.409       .  A
C2299      H2303   1.083       .  S
C2300      C2301   1.404       .  A
C2301      H2304   1.084       .  S
C2305      C2306   1.402       .  A
C2305      C2310   1.410       .  A
C2306      C2307   1.401       .  A
C2306      H2311   1.084       .  S
C2307      C2308   1.408       .  A
C2308      C2309   1.408       .  A
C2308      H2312   1.083       .  S
C2309      C2310   1.409       .  A
C2309      C2316   1.502       .  S
C2310      H2313   1.083       .  S
C2314      C2315   1.409   1_565  A
C2314      C2319   1.414       .  A
C2314      C2336   1.501   1_655  S
C2315      C2316   1.411       .  A
C2315      H2320   1.082   1_645  S
C2316      C2317   1.410       .  A
C2317      C2318   1.410       .  A
C2317      H2321   1.081       .  S
C2318      C2319   1.408   1_545  A
C2318      C2327   1.504   1_545  S
C2319      H2322   1.082       .  S
C2323      C2324   1.392       .  A
C2323      C2328   1.406       .  A
C2323      C2358   1.471       .  S
C2324      C2325   1.395   1_545  A
C2324      H2329   1.085       .  S
C2325      C2326   1.411       .  A
C2326      C2327   1.416       .  A
C2326      H2330   1.083       .  S
C2327      C2328   1.412   1_565  A
C2328      H2331   1.083       .  S
C2332      C2333   1.399       .  A
C2332      C2337   1.411       .  A
C2333      C2334   1.395       .  A
C2333      H2338   1.085       .  S
C2334      C2335   1.404       .  A
C2335      C2336   1.410       .  A
C2335      H2339   1.083   1_455  S
C2336      C2337   1.416       .  A
C2337      H2340   1.083       .  S
O2341     Mg2343   2.116       .  S
O2341     Mg2349   2.138   1_565  S
O2341      C2376   1.239       .  S
C2342      H2381   1.081       .  S
C2342      O2355   1.239       .  S
C2342      O2379   1.271       .  A
Mg2343     O2372   2.136       .  S
Mg2343     O2387   2.301       .  S
Mg2343     O2383   2.251       .  S
Mg2343     O2354   2.296       .  S
O2344     Mg2386   2.134       .  S
O2344     Mg2369   2.111       .  S
O2344      C2365   1.239       .  S
O2345      C2376   1.272       .  A
O2345     Mg2369   2.298   1_565  S
C2346      O2348   1.273       .  A
C2346      O2360   1.277       .  A
O2347      C2375   1.272   1_545  A
O2347     Mg2349   2.298       .  S
O2348     Mg2380   2.254       .  S
Mg2349     O2355   2.112       .  S
Mg2349     O2363   2.260   1_545  S
Mg2349     O2351   2.303       .  S
C2350      O2388   1.272       .  A
C2350      O2356   1.275       .  A
O2351      C2358   1.277       .  A
H2352      C2365   1.081       .  S
C2353      H2378   1.081       .  S
C2353      O2367   1.239       .  S
C2353      O2368   1.272       .  A
O2354      C2377   1.272       .  A
O2355     Mg2369   2.140       .  S
O2356     Mg2386   2.293       .  S
C2357      O2370   1.273       .  A
C2357      O2362   1.276       .  A
C2358      O2385   1.271       .  A
Mg2359     O2366   2.116       .  S
Mg2359     O2367   2.142   1_565  S
Mg2359     O2360   2.315       .  S
Mg2359     O2361   2.296       .  S
Mg2359     O2388   2.254   1_565  S
O2361      C2365   1.272   1_565  A
O2362     Mg2369   2.311       .  S
O2363      C2382   1.273       .  A
O2364      C2384   1.277       .  A
O2364     Mg2380   2.312       .  S
O2366     Mg2380   2.135       .  S
O2366      C2377   1.239       .  S
O2367     Mg2386   2.120       .  S
O2368     Mg2380   2.298   1_545  S
Mg2369     O2385   2.242       .  S
O2370     Mg2386   2.258       .  S
H2371      C2376   1.081       .  S
O2372     Mg2380   2.119       .  S
O2372      C2375   1.239       .  S
H2373      C2375   1.081       .  S
H2374      C2377   1.081       .  S
O2379     Mg2386   2.294       .  S
C2382      O2387   1.276       .  A
O2383      C2384   1.272       .  A
O2389     Mg2391   2.131       .  S
O2389     Mg2397   2.106       .  S
O2389      C2424   1.240       .  S
C2390      H2429   1.081       .  S
C2390      O2403   1.239       .  S
C2390      O2427   1.274       .  A
Mg2391     O2420   2.106       .  S
Mg2391     O2435   2.331       .  S
Mg2391     O2431   2.243       .  S
Mg2391     O2402   2.309       .  S
O2392     Mg2434   2.105       .  S
O2392     Mg2417   2.123       .  S
O2392      C2413   1.240       .  S
O2393      C2424   1.275       .  A
O2393     Mg2417   2.316       .  S
C2394      O2396   1.270       .  A
C2394      O2408   1.275       .  A
O2395      C2423   1.275       .  A
O2395     Mg2397   2.314       .  S
O2396     Mg2428   2.239       .  S
Mg2397     O2403   2.117       .  S
Mg2397     O2411   2.220       .  S
Mg2397     O2399   2.345       .  S
C2398      C2455   1.467       .  S
C2398      O2436   1.268       .  A
C2398      O2404   1.274       .  A
O2399      C2406   1.275       .  A
H2400      C2413   1.081       .  S
C2401      H2426   1.081       .  S
C2401      O2415   1.240       .  S
C2401      O2416   1.275       .  A
O2402      C2425   1.274       .  A
O2403     Mg2417   2.104       .  S
O2404     Mg2434   2.333       .  S
C2405      O2418   1.271       .  A
C2405      O2410   1.276       .  A
C2406      O2433   1.270       .  A
Mg2407     O2414   2.116       .  S
Mg2407     O2415   2.105       .  S
Mg2407     O2408   2.345       .  S
Mg2407     O2409   2.316       .  S
Mg2407     O2436   2.219       .  S
O2409      C2413   1.275       .  A
O2410     Mg2417   2.344       .  S
O2411      C2430   1.269       .  A
O2412      C2432   1.275       .  A
O2412     Mg2428   2.343       .  S
O2414     Mg2428   2.103       .  S
O2414      C2425   1.239       .  S
O2415     Mg2434   2.132       .  S
O2416     Mg2428   2.317       .  S
Mg2417     O2433   2.239       .  S
O2418     Mg2434   2.241       .  S
H2419      C2424   1.081       .  S
O2420     Mg2428   2.122       .  S
O2420      C2423   1.241       .  S
H2421      C2423   1.081       .  S
H2422      C2425   1.081       .  S
O2427     Mg2434   2.311       .  S
C2430      O2435   1.273       .  A
O2431      C2432   1.271       .  A
C2437      C2438   1.412       .  A
C2437      C2442   1.398       .  A
C2438      C2439   1.416       .  A
C2438      H2443   1.083       .  S
C2439      C2440   1.411       .  A
C2439      C2450   1.503       .  S
C2440      C2441   1.406       .  A
C2440      H2444   1.083       .  S
C2441      C2442   1.394       .  A
C2441      C2514   1.474       .  S
C2442      H2445   1.085       .  S
C2446      C2447   1.412       .  A
C2446      C2451   1.411       .  A
C2446      C2459   1.503       .  S
C2447      C2448   1.413       .  A
C2447      H2452   1.082       .  S
C2448      C2449   1.409       .  A
C2448      C2468   1.507       .  S
C2449      C2450   1.415       .  A
C2449      H2453   1.083       .  S
C2450      C2451   1.411       .  A
C2451      H2454   1.083       .  S
C2455      C2456   1.389       .  A
C2455      C2460   1.407       .  A
C2456      C2457   1.390       .  A
C2456      H2461   1.086       .  S
C2457      C2458   1.411       .  A
C2458      C2459   1.419       .  A
C2458      H2462   1.083       .  S
C2459      C2460   1.417       .  A
C2460      H2463   1.083       .  S
C2464      C2465   1.396       .  A
C2464      C2469   1.414       .  A
C2465      C2466   1.393       .  A
C2465      H2470   1.085       .  S
C2466      C2467   1.407       .  A
C2467      C2468   1.412       .  A
C2467      H2471   1.083       .  S
C2468      C2469   1.418       .  A
C2469      H2472   1.083       .  S
C2473      C2474   1.393       .  A
C2473      C2478   1.405       .  A
C2473      C2525   1.473       .  S
C2474      C2475   1.398       .  A
C2474      H2479   1.085       .  S
C2475      C2476   1.415       .  A
C2476      C2477   1.418       .  A
C2476      H2480   1.083       .  S
C2477      C2478   1.411       .  A
C2477      C2493   1.506       .  S
C2478      H2481   1.083       .  S
C2482      C2483   1.408       .  A
C2482      C2487   1.387       .  A
C2483      C2484   1.417       .  A
C2483      H2488   1.083       .  S
C2484      C2485   1.417       .  A
C2484      C2495   1.500       .  S
C2485      C2486   1.408       .  A
C2485      H2489   1.083       .  S
C2486      C2487   1.387       .  A
C2486      C2600   1.465       .  S
C2487      H2490   1.086       .  S
C2491      C2492   1.412       .  A
C2491      C2496   1.410       .  A
C2491      C2504   1.507   1_554  S
C2492      C2493   1.412       .  A
C2492      H2497   1.082       .  S
C2493      C2494   1.409       .  A
C2494      C2495   1.414       .  A
C2494      H2498   1.083       .  S
C2495      C2496   1.414       .  A
C2496      H2499   1.083   1_554  S
C2500      C2501   1.398       .  A
C2500      C2505   1.415       .  A
C2501      C2502   1.393       .  A
C2501      H2506   1.085       .  S
C2502      C2503   1.405       .  A
C2503      C2504   1.412       .  A
C2503      H2507   1.083   1_556  S
C2504      C2505   1.419       .  A
C2505      H2508   1.083       .  S
O2509     Mg2511   2.116       .  S
O2509     Mg2517   2.135       .  S
O2509      C2544   1.239       .  S
C2510      H2549   1.081       .  S
C2510      O2523   1.240       .  S
C2510      O2547   1.273       .  A
Mg2511     O2540   2.138       .  S
Mg2511     O2555   2.315       .  S
Mg2511     O2551   2.254       .  S
Mg2511     O2522   2.298       .  S
O2512     Mg2554   2.139       .  S
O2512     Mg2537   2.120       .  S
O2512      C2533   1.239       .  S
O2513      C2544   1.272       .  A
O2513     Mg2537   2.296       .  S
C2514      O2516   1.272       .  A
C2514      O2528   1.276       .  A
O2515      C2543   1.272   1_554  A
O2515     Mg2517   2.296       .  S
O2516     Mg2548   2.252       .  S
Mg2517     O2523   2.123       .  S
Mg2517     O2531   2.257       .  S
Mg2517     O2519   2.313       .  S
C2518      O2556   1.273   1_554  A
C2518      O2524   1.278       .  A
O2519      C2526   1.277       .  A
H2520      C2533   1.081       .  S
C2521      H2546   1.081       .  S
C2521      O2535   1.239       .  S
C2521      O2536   1.272       .  A
O2522      C2545   1.273       .  A
O2523     Mg2537   2.137       .  S
O2524     Mg2554   2.323       .  S
C2525      O2538   1.272       .  A
C2525      O2530   1.277       .  A
C2526      O2553   1.274       .  A
Mg2527     O2534   2.118   1_556  S
Mg2527     O2535   2.132       .  S
Mg2527     O2528   2.302       .  S
Mg2527     O2529   2.297   1_556  S
Mg2527     O2556   2.260       .  S
O2529      C2533   1.272       .  A
O2530     Mg2537   2.305       .  S
O2531      C2550   1.273       .  A
O2532      C2552   1.276       .  A
O2532     Mg2548   2.303       .  S
O2534     Mg2548   2.141   1_554  S
O2534      C2545   1.240       .  S
O2535     Mg2554   2.113   1_556  S
O2536     Mg2548   2.296       .  S
Mg2537     O2553   2.263       .  S
O2538     Mg2554   2.249       .  S
H2539      C2544   1.081       .  S
O2540     Mg2548   2.112   1_554  S
O2540      C2543   1.239   1_554  S
H2541      C2543   1.081       .  S
H2542      C2545   1.081       .  S
O2547     Mg2554   2.301       .  S
C2550      O2555   1.277       .  A
O2551      C2552   1.272   1_554  A
C2552      C2632   1.474       .  S
O2557     Mg2559   2.110       .  S
O2557     Mg2565   2.101       .  S
O2557      C2592   1.240       .  S
C2558      H2597   1.081       .  S
C2558      O2571   1.240       .  S
C2558      O2595   1.275       .  A
Mg2559     O2588   2.102       .  S
Mg2559     O2603   2.341       .  S
Mg2559     O2599   2.212       .  S
Mg2559     O2570   2.312       .  S
O2560     Mg2602   2.098       .  S
O2560     Mg2585   2.116       .  S
O2560      C2581   1.239       .  S
O2561      C2592   1.274       .  A
O2561     Mg2585   2.309       .  S
C2562      O2564   1.270       .  A
C2562      O2576   1.273       .  A
O2563      C2591   1.274       .  A
O2563     Mg2565   2.311       .  S
O2564     Mg2596   2.223       .  S
Mg2565     O2571   2.121       .  S
Mg2565     O2579   2.234       .  S
Mg2565     O2567   2.332       .  S
C2566      O2604   1.269       .  A
C2566      O2572   1.273       .  A
O2567      C2574   1.273       .  A
H2568      C2581   1.081       .  S
C2569      H2594   1.081       .  S
C2569      O2583   1.240       .  S
C2569      O2584   1.274       .  A
O2570      C2593   1.274       .  A
O2571     Mg2585   2.103       .  S
O2572     Mg2602   2.337   1_556  S
C2573      C2625   1.466       .  S
C2573      O2586   1.268       .  A
C2573      O2578   1.273       .  A
C2574      O2601   1.269       .  A
Mg2575     O2582   2.113   1_556  S
Mg2575     O2583   2.100       .  S
Mg2575     O2576   2.334       .  S
Mg2575     O2577   2.310   1_556  S
Mg2575     O2604   2.219       .  S
O2577      C2581   1.274       .  A
O2578     Mg2585   2.333       .  S
O2579      C2598   1.270       .  A
O2580      C2600   1.273       .  A
O2580     Mg2596   2.329   1_554  S
O2582     Mg2596   2.102   1_554  S
O2582      C2593   1.240       .  S
O2583     Mg2602   2.109   1_556  S
O2584     Mg2596   2.307       .  S
Mg2585     O2601   2.218       .  S
O2586     Mg2602   2.210       .  S
H2587      C2592   1.081       .  S
O2588     Mg2596   2.120   1_554  S
O2588      C2591   1.239       .  S
H2589      C2591   1.081   1_556  S
H2590      C2593   1.081       .  S
O2595     Mg2602   2.315       .  S
C2598      O2603   1.275       .  A
O2599      C2600   1.269       .  A
C2605      C2606   1.392       .  A
C2605      C2610   1.404       .  A
C2606      C2607   1.397   1_545  A
C2606      H2611   1.085       .  S
C2607      C2608   1.415       .  A
C2608      C2609   1.419       .  A
C2608      H2612   1.083       .  S
C2609      C2610   1.411   1_565  A
C2609      C2616   1.507       .  S
C2610      H2613   1.083       .  S
C2614      C2615   1.414       .  A
C2614      C2619   1.415       .  A
C2614      C2627   1.500       .  S
C2615      C2616   1.409       .  A
C2615      H2620   1.083       .  S
C2616      C2617   1.412   1_565  A
C2617      C2618   1.412       .  A
C2617      H2621   1.082       .  S
C2618      C2619   1.410   1_545  A
C2618      C2636   1.507   1_554  S
C2619      H2622   1.083   1_554  S
C2623      C2624   1.387       .  A
C2623      C2628   1.408       .  A
C2624      C2625   1.388       .  A
C2624      H2629   1.086       .  S
C2625      C2626   1.408       .  A
C2626      C2627   1.417       .  A
C2626      H2630   1.083       .  S
C2627      C2628   1.417       .  A
C2628      H2631   1.083       .  S
C2632      C2633   1.394       .  A
C2632      C2637   1.405       .  A
C2633      C2634   1.398       .  A
C2633      H2638   1.085       .  S
C2634      C2635   1.416       .  A
C2635      C2636   1.418       .  A
C2635      H2639   1.083       .  S
C2636      C2637   1.412       .  A
C2637      H2640   1.083   1_556  S
O2641     Mg2643   2.106       .  S
O2641     Mg2649   2.133       .  S
O2641      C2676   1.239       .  S
C2642      H2681   1.081       .  S
C2642      O2655   1.240       .  S
C2642      O2679   1.272       .  A
Mg2643     O2672   2.140       .  S
Mg2643     O2687   2.319       .  S
Mg2643     O2683   2.242       .  S
Mg2643     O2654   2.301       .  S
O2644     Mg2686   2.137       .  S
O2644     Mg2669   2.109       .  S
O2644      C2665   1.238       .  S
O2645      C2676   1.272       .  A
O2645     Mg2669   2.293       .  S
C2646      O2648   1.273       .  A
C2646      O2660   1.275       .  A
O2647      C2675   1.272       .  A
O2647     Mg2649   2.297       .  S
O2648     Mg2680   2.258       .  S
Mg2649     O2655   2.115       .  S
Mg2649     O2663   2.257       .  S
Mg2649     O2651   2.297       .  S
C2650      O2688   1.273       .  A
C2650      O2656   1.277       .  A
O2651      C2658   1.276       .  A
H2652      C2665   1.081       .  S
C2653      H2678   1.081       .  S
C2653      O2667   1.239       .  S
C2653      O2668   1.272       .  A
O2654      C2677   1.273       .  A
O2655     Mg2669   2.141       .  S
O2656     Mg2686   2.313       .  S
C2657      O2670   1.272       .  A
C2657      O2662   1.274       .  A
C2658      O2685   1.271       .  A
Mg2659     O2666   2.120       .  S
Mg2659     O2667   2.138       .  S
Mg2659     O2660   2.304       .  S
Mg2659     O2661   2.292       .  S
Mg2659     O2688   2.253       .  S
O2661      C2665   1.271       .  A
O2662     Mg2669   2.290       .  S
O2663      C2682   1.273       .  A
O2664      C2684   1.276       .  A
O2664     Mg2680   2.297       .  S
O2666     Mg2680   2.135       .  S
O2666      C2677   1.240       .  S
O2667     Mg2686   2.112       .  S
O2668     Mg2680   2.295       .  S
Mg2669     O2685   2.246       .  S
O2670     Mg2686   2.251       .  S
H2671      C2676   1.081       .  S
O2672     Mg2680   2.120       .  S
O2672      C2675   1.239       .  S
H2673      C2675   1.081       .  S
H2674      C2677   1.081       .  S
O2679     Mg2686   2.298       .  S
C2682      O2687   1.278       .  A
O2683      C2684   1.271       .  A
