geometry optimzed in LAMMPS
_audit_creation_date              2020-11-30 
_audit_creation_method            'lammps2cif' 
_symmetry_space_group_name_H-M    'P1' 
_symmetry_Int_Tables_number       1 
_symmetry_cell_setting            triclinic 
loop_ 
_symmetry_equiv_pos_as_xyz 
  x,y,z 
_cell_length_a                    30.19677325 
_cell_length_b                    30.211987873196712 
_cell_length_c                    30.200759871924603 
_cell_angle_alpha                 89.05385636146138 
_cell_angle_beta                  89.72164138375331 
_cell_angle_gamma                 89.99731406486933 
loop_ 
_atom_site_label 
_atom_site_type_symbol 
_atom_site_fract_x 
_atom_site_fract_y 
_atom_site_fract_z 
_atom_site_charge 
O1          O  0.60089129  0.97507674  0.46102308    -0.77800
O2          O  0.41951385  0.94855747  0.52119073    -0.77900
O3          O  0.50464754  0.92560772  0.56742072    -0.77900
O4          O  0.47719721  0.93193415  0.44527990    -0.77800
O5          O  0.45879324  0.97041512  0.59821305    -0.77900
O6          O  0.52649250  0.97197424  0.40788042    -0.77900
O7          O  0.39196307  0.96611268  0.45631574    -0.77800
O8          O  0.57931692  0.92491560  0.51076302    -0.77900
C9          C  0.60546306  0.93770538  0.47965815     1.11800
C10         C  0.38688701  0.94771457  0.49428519     1.11700
C11         C  0.48446035  0.93708123  0.60177143     1.11900
C12         C  0.49893751  0.93938853  0.41011395     1.11700
O13         O  0.50616075  0.06184818  0.44032674    -0.77800
O14         O  0.48125110  0.05663074  0.56457498    -0.77900
O15         O  0.60185216  0.00878766  0.54333105    -0.77900
O16         O  0.42238651  0.04433577  0.48750622    -0.77800
O17         O  0.39376412  0.02869151  0.55260049    -0.77900
O18         O  0.58032114  0.05941288  0.49413894    -0.77900
O19         O  0.45899207  0.01878496  0.41004593    -0.77800
O20         O  0.52926632  0.01377010  0.59998125    -0.77900
Co21       Co  0.55053690  0.01661809  0.45395520     1.51500
Co22       Co  0.45265447  0.00474743  0.53906970     1.51700
Co23       Co  0.55083137  0.96874796  0.55236900     1.51600
Co24       Co  0.45188754  0.98589677  0.46985316     1.51500
O25         O  0.51021567  0.99370333  0.50387019    -1.39800
C26         C  0.48493703  0.05180478  0.40645799     1.11800
C27         C  0.50271333  0.04728298  0.59933961     1.11900
C28         C  0.60670074  0.04588525  0.52416721     1.11800
C29         C  0.38991403  0.04769681  0.51469461     1.11800
O30         O  0.93964643  0.55860743  0.50422038    -0.77800
O31         O  0.94843301  0.43536428  0.48032015    -0.77900
O32         O  0.95964509  0.50917186  0.41995260    -0.77900
O33         O  0.99491554  0.45673324  0.60134421    -0.77800
O34         O  0.97946338  0.44486830  0.39388780    -0.77900
O35         O  0.94380696  0.50489915  0.58002507    -0.77900
O36         O  0.99024941  0.40021361  0.52924544    -0.77800
O37         O  0.98137276  0.58940770  0.45468367    -0.77900
C38         C  0.94887935  0.59252245  0.48154978     1.11800
C39         C  0.95722777  0.40053136  0.50208350     1.11700
C40         C  0.95880787  0.48130990  0.38838063     1.11900
C41         C  0.95778166  0.47488828  0.60656634     1.11700
O42         O  0.02814004  0.54134099  0.59800924    -0.77800
O43         O  0.05743566  0.48127577  0.41967889    -0.77900
O44         O  0.06944217  0.55953755  0.47342246    -0.77900
O45         O  0.07924591  0.43497933  0.50538658    -0.77800
O46         O  0.03546889  0.40277456  0.46036019    -0.77900
O47         O  0.02840144  0.59471857  0.52241526    -0.77900
O48         O  0.07825570  0.49188902  0.57803895    -0.77800
O49         O  0.03696689  0.54409788  0.38882416    -0.77900
Co50       Co  0.98563294  0.54658686  0.54826951     1.51500
Co51       Co  0.00102345  0.46128325  0.45221656     1.51700
Co52       Co  0.01666612  0.53114570  0.44926981     1.51600
Co53       Co  0.03498624  0.44908184  0.55043346     1.51500
O54         O  0.00991269  0.49730312  0.50888239    -1.39800
C55         C  0.06565867  0.52349276  0.60281841     1.11800
C56         C  0.05751636  0.50733315  0.38578028     1.11900
C57         C  0.06073996  0.59431502  0.49443053     1.11800
C58         C  0.06851949  0.40014403  0.48622374     1.11800
O59         O  0.44963133  0.50974603  0.05965025    -0.77800
O60         O  0.57264342  0.48802989  0.06474637    -0.77900
O61         O  0.47133407  0.39030050  0.01345241    -0.77900
O62         O  0.52549767  0.56936126  0.04561543    -0.77800
O63         O  0.51685797  0.41468057  0.06456660    -0.77900
O64         O  0.46048885  0.59773950  0.03073376    -0.77900
O65         O  0.60327878  0.53549481  0.02045164    -0.77800
O66         O  0.41442685  0.46224963  0.01739361    -0.77900
C67         C  0.41483170  0.48859644  0.05053871     1.11800
C68         C  0.60644743  0.50986896  0.05403255     1.11700
C69         C  0.48583883  0.38892664  0.05259526     1.11900
C70         C  0.49813561  0.60132384  0.04938633     1.11700
O71         O  0.49292702  0.57240795  0.95026478    -0.77800
O72         O  0.55293782  0.39257872  0.97978580    -0.77900
O73         O  0.44630435  0.48746889  0.92859461    -0.77900
O74         O  0.57104757  0.51617879  0.93415389    -0.77800
O75         O  0.60720374  0.46714382  0.97563203    -0.77900
O76         O  0.41619108  0.53337089  0.97386765    -0.77900
O77         O  0.55726894  0.60132699  0.96644446    -0.77800
O78         O  0.50555468  0.41538932  0.92862760    -0.77900
Co79       Co  0.47495313  0.53930811  0.00723280     1.51500
Co80       Co  0.55943451  0.44310705  0.02069433     1.51700
Co81       Co  0.46248484  0.44163403  0.97242497     1.51600
Co82       Co  0.54439973  0.54111387  0.98736598     1.51500
O83         O  0.51048288  0.48270930  0.99615394    -1.39800
C84         C  0.51957010  0.60526571  0.94795739     1.11800
C85         C  0.53706076  0.39004437  0.94124672     1.11900
C86         C  0.41245354  0.50854870  0.94042490     1.11800
C87         C  0.60622479  0.49505515  0.94269169     1.11800
C88         C  0.58928608  0.92621920  0.78139555     0.82500
N89         N  0.55810776  0.93145435  0.74923969    -0.75800
C90         C  0.56177031  0.91009774  0.71008221     0.85000
N91         N  0.59758362  0.88361647  0.70282514    -0.75700
C92         C  0.62902891  0.87706330  0.73467312     0.85100
N93         N  0.62460836  0.89850629  0.77423311    -0.77500
C94         C  0.72301826  0.78610800  0.74359759     0.82500
N95         N  0.75181321  0.79083247  0.70846206    -0.75800
C96         C  0.78461241  0.76011977  0.70124412     0.85000
N97         N  0.78851010  0.72501286  0.73016306    -0.75700
C98         C  0.76009681  0.71976672  0.76525760     0.85100
N99         N  0.72778458  0.75055920  0.77167004    -0.77500
C100        C  0.93674929  0.77573166  0.57513652     0.82500
N101        N  0.94227638  0.74145816  0.54681616    -0.75800
C102        C  0.91525361  0.70540562  0.54887212     0.85000
N103        N  0.88257099  0.70358022  0.58039465    -0.75700
C104        C  0.87570226  0.73793804  0.60876119     0.85100
N105        N  0.90313911  0.77404504  0.60585687    -0.77500
C106        C  0.78649452  0.59627291  0.91429739     0.82500
N107        N  0.78067352  0.62718145  0.88139842    -0.75800
C108        C  0.74179535  0.62944825  0.85856577     0.85000
N109        N  0.70864578  0.60007110  0.86898753    -0.75700
C110        C  0.71442368  0.56810234  0.90103117     0.85100
N111        N  0.75340256  0.56668067  0.92369821    -0.77500
C112        C  0.28772317  0.22521368  0.76190408     0.82500
N113        N  0.28154851  0.25890101  0.79125563    -0.75800
C114        C  0.24682418  0.28793361  0.78681681     0.85000
N115        N  0.21775666  0.28237045  0.75250652    -0.75700
C116        C  0.22324295  0.24883495  0.72291316     0.85100
N117        N  0.25817834  0.22050278  0.72821007    -0.77500
C118        C  0.29789846  0.44137917  0.91333960     0.82500
N119        N  0.29932616  0.40810808  0.88335698    -0.75800
C120        C  0.26475479  0.37926364  0.87889766     0.85000
N121        N  0.22852868  0.38354180  0.90636726    -0.75700
C122        C  0.22731727  0.41633095  0.93754955     0.85100
N123        N  0.26201887  0.44493408  0.94040730    -0.77500
C124        C  0.41084452  0.07352742  0.78387687     0.82500
N125        N  0.43846200  0.06503135  0.74912873    -0.75800
C126        C  0.43614729  0.08931399  0.71077161     0.85000
N127        N  0.40508106  0.12214992  0.70722935    -0.75700
C128        C  0.37749034  0.13184385  0.74196035     0.85100
N129        N  0.38067596  0.10722999  0.78028941    -0.77500
C130        C  0.08225720  0.21768707  0.59020137     0.82500
N131        N  0.11151852  0.22350560  0.62423090    -0.75800
C132        C  0.13358654  0.26291674  0.62849264     0.85000
N133        N  0.12608121  0.29613914  0.59807945    -0.75700
C134        C  0.09791770  0.29032038  0.56340649     0.85100
N135        N  0.07599863  0.25114847  0.55997864    -0.77500
O136        O  0.55536943  0.96095723  0.93210317    -0.77800
O137        O  0.55654338  0.02970619  0.07586252    -0.77900
O138        O  0.55635225  0.06526741  0.96988246    -0.77900
O139        O  0.55837105  0.92579770  0.03894754    -0.77800
O140        O  0.53011123  0.09809859  0.02701974    -0.77900
O141        O  0.53086008  0.89304536  0.98255263    -0.77900
O142        O  0.53120506  0.97209047  0.10963076    -0.77800
O143        O  0.52894060  0.01898761  0.89994550    -0.77900
C144        C  0.55418656  0.98544112  0.89859811     1.11800
C145        C  0.55579724  0.00604302  0.10989326     1.11700
C146        C  0.55619040  0.09821735  0.99403229     1.11900
C147        C  0.55798000  0.89307060  0.01443593     1.11700
O148        O  0.43755824  0.92475526  0.97346034    -0.77800
O149        O  0.43752046  0.06545398  0.03966758    -0.77900
O150        O  0.43712722  0.03113162  0.93401253    -0.77900
O151        O  0.43934620  0.95829397  0.07866879    -0.77800
O152        O  0.46444548  0.01662714  0.10966812    -0.77900
O153        O  0.46274631  0.97354074  0.90200454    -0.77900
O154        O  0.46652863  0.89122755  0.02962640    -0.77800
O155        O  0.46444113  0.09908963  0.98231791    -0.77900
Co156      Co  0.49635563  0.94499635  0.95456144     1.51500
Co157      Co  0.49691822  0.04554932  0.05608520     1.51700
Co158      Co  0.49679047  0.04641868  0.95377173     1.51600
Co159      Co  0.49883006  0.94405510  0.05694412     1.51500
O160        O  0.49698614  0.99526116  0.00533432    -1.39800
C161        C  0.43969949  0.89097525  0.99751118     1.11800
C162        C  0.43879313  0.09932739  0.01570015     1.11900
C163        C  0.43808313  0.00748158  0.90067671     1.11800
C164        C  0.43993316  0.98254215  0.11158238     1.11800
C165        C  0.29254640  0.75997709  0.78230097     0.82500
N166        N  0.29429176  0.79266061  0.75067507    -0.75800
C167        C  0.26677710  0.79259486  0.71515822     0.85000
N168        N  0.23699494  0.75904267  0.71130309    -0.75700
C169        C  0.23426319  0.72591797  0.74252870     0.85100
N170        N  0.26229170  0.72643224  0.77819457    -0.77500
C171        C  0.41114490  0.77730123  0.93352689     0.82500
N172        N  0.37909562  0.77228779  0.90221005    -0.75800
C173        C  0.37866822  0.73564341  0.87615189     0.85000
N174        N  0.41102793  0.70441062  0.88162238    -0.75700
C175        C  0.44376971  0.70987025  0.91204357     0.85100
N176        N  0.44338355  0.74616794  0.93796766    -0.77500
C177        C  0.20412891  0.94218058  0.58778783     0.82500
N178        N  0.23954205  0.94602326  0.55995577    -0.75800
C179        C  0.27454284  0.91779793  0.56368549     0.85000
N180        N  0.27420440  0.88561024  0.59604229    -0.75700
C181        C  0.23857256  0.88107372  0.62387140     0.85100
N182        N  0.20348315  0.90917546  0.61905437    -0.77500
C183        C  0.10769863  0.58098221  0.71616923     0.82500
N184        N  0.07818380  0.57311792  0.74984209    -0.75800
C185        C  0.08162082  0.59474264  0.78898917     0.85000
N186        N  0.11536456  0.62412604  0.79442416    -0.75700
C187        C  0.14490370  0.63299459  0.76103491     0.85100
N188        N  0.14073860  0.61134768  0.72177637    -0.77500
C189        C  0.74947010  0.28327204  0.22226219     0.82500
N190        N  0.71558694  0.25367461  0.21764218    -0.75800
C191        C  0.70879841  0.22048446  0.24837583     0.85000
N192        N  0.73692867  0.21700209  0.28371480    -0.75700
C193        C  0.77086773  0.24655058  0.28882875     0.85100
N194        N  0.77693485  0.27914615  0.25772488    -0.77500
C195        C  0.92333644  0.22175402  0.40285152     0.82500
N196        N  0.93459960  0.25435961  0.43151833    -0.75800
C197        C  0.91177595  0.29335221  0.43203682     0.85000
N198        N  0.87755144  0.29948180  0.40293709    -0.75700
C199        C  0.86535514  0.26658358  0.37468173     0.85100
N200        N  0.88847307  0.22786892  0.37506365    -0.77500
C201        C  0.78756501  0.41048104  0.07827416     0.82500
N202        N  0.75563068  0.44126439  0.06949718    -0.75800
C203        C  0.71568933  0.43924799  0.09050468     0.85000
N204        N  0.70753756  0.40568481  0.12010463    -0.75700
C205        C  0.73926428  0.37492931  0.12987540     0.85100
N206        N  0.77945986  0.37760311  0.10887805    -0.77500
C207        C  0.58375797  0.07170647  0.22420633     0.82500
N208        N  0.61509425  0.10415540  0.22843743    -0.75800
C209        C  0.61748576  0.12816376  0.26646467     0.85000
N210        N  0.58797998  0.11925656  0.29998290    -0.75700
C211        C  0.55593342  0.08776161  0.29557372     0.85100
N212        N  0.55433709  0.06399232  0.25777562    -0.77500
O213        O  0.90793415  0.52272377  0.95366176    -0.77800
O214        O  0.08779075  0.55199120  0.01574472    -0.77900
O215        O  0.00081906  0.57283410  0.06028482    -0.77900
O216        O  0.03170514  0.56726102  0.93483686    -0.77800
O217        O  0.04638826  0.52772699  0.09226664    -0.77900
O218        O  0.98306596  0.52526893  0.90020517    -0.77900
O219        O  0.11759397  0.53531537  0.95208172    -0.77800
O220        O  0.92788456  0.57351556  0.00176141    -0.77900
C221        C  0.90252353  0.56016441  0.97094908     1.11800
C222        C  0.12136774  0.55365159  0.98970329     1.11700
C223        C  0.02016862  0.56067862  0.09514252     1.11900
C224        C  0.01055398  0.55801679  0.90006414     1.11700
O225        O  0.00437228  0.43685383  0.93721816    -0.77800
O226        O  0.02559587  0.44229273  0.05844748    -0.77900
O227        O  0.90432318  0.48965631  0.03633560    -0.77900
O228        O  0.08525565  0.45601849  0.98332990    -0.77800
O229        O  0.11395545  0.47087080  0.04742420    -0.77900
O230        O  0.92889316  0.43826749  0.99129301    -0.77900
O231        O  0.05210024  0.48018205  0.90558532    -0.77800
O232        O  0.97602132  0.48382622  0.09261510    -0.77900
Co233      Co  0.95875659  0.48133171  0.94863422     1.51500
Co234      Co  0.05467400  0.49503325  0.03343894     1.51700
Co235      Co  0.95540033  0.52966647  0.04471679     1.51600
Co236      Co  0.05682689  0.51443390  0.96350438     1.51500
O237        O  0.99778981  0.50617752  0.99721726    -1.39800
C238        C  0.02666114  0.44673330  0.90331434     1.11800
C239        C  0.00261300  0.45044818  0.09245607     1.11900
C240        C  0.90174672  0.45127748  0.02085556     1.11800
C241        C  0.11797519  0.45262456  0.00969185     1.11800
C242        C  0.20889464  0.05949001  0.42320045     0.82500
N243        N  0.20510894  0.09554154  0.39576653    -0.75800
C244        C  0.23780277  0.12671582  0.39290501     0.85000
N245        N  0.27462640  0.12178843  0.41909192    -0.75700
C246        C  0.27819881  0.08616390  0.44777468     0.85100
N247        N  0.24531127  0.05525515  0.44927528    -0.77500
C248        C  0.25459747  0.22303796  0.30416435     0.82500
N249        N  0.28429747  0.22838428  0.27016846    -0.75800
C250        C  0.27899723  0.26100369  0.23879818     0.85000
N251        N  0.24362595  0.28881627  0.24184798    -0.75700
C252        C  0.21331916  0.28435492  0.27526550     0.85100
N253        N  0.21915742  0.25141460  0.30661364    -0.77500
C254        C  0.06539618  0.41255259  0.20642317     0.82500
N255        N  0.09643616  0.37967006  0.20783276    -0.75800
C256        C  0.12321356  0.37394128  0.24395818     0.85000
N257        N  0.11933870  0.40261098  0.27839670    -0.75700
C258        C  0.08916506  0.43642882  0.27665623     0.85100
N259        N  0.06232444  0.44091529  0.24078376    -0.77500
C260        C  0.40309195  0.21005671  0.08367671     0.82500
N261        N  0.37455305  0.20641885  0.11862876    -0.75800
C262        C  0.36775649  0.24109508  0.14630772     0.85000
N263        N  0.39079668  0.27962080  0.13917201    -0.75700
C264        C  0.42039141  0.28311759  0.10484592     0.85100
N265        N  0.42608274  0.24833940  0.07724717    -0.77500
C266        C  0.81691256  0.26571667  0.75167049     0.82500
N267        N  0.78188213  0.27168886  0.77938829    -0.75800
C268        C  0.74865503  0.24120625  0.78241783     0.85000
N269        N  0.75064104  0.20412551  0.75669125    -0.75700
C270        C  0.78596704  0.19788528  0.72860349     0.85100
N271        N  0.81844728  0.22902693  0.72636287    -0.77500
C272        C  0.92750417  0.41964696  0.72406071     0.82500
N273        N  0.95747419  0.42986775  0.75593642    -0.75800
C274        C  0.95847192  0.40649652  0.79489406     0.85000
N275        N  0.92878090  0.37306542  0.80198748    -0.75700
C276        C  0.89925607  0.36203150  0.76992221     0.85100
N277        N  0.89896942  0.38540275  0.73096859    -0.77500
C278        C  0.59591767  0.27849590  0.89814610     0.82500
N279        N  0.58451933  0.24545041  0.92721502    -0.75800
C280        C  0.60455962  0.20523686  0.92557058     0.85000
N281        N  0.63593379  0.19782613  0.89408258    -0.75700
C282        C  0.64840595  0.23049386  0.86493580     0.85100
N283        N  0.62833496  0.27114760  0.86721249    -0.77500
C284        C  0.72061513  0.07994091  0.58013377     0.82500
N285        N  0.72142318  0.10605110  0.61611433    -0.75800
C286        C  0.75726535  0.10707368  0.64303082     0.85000
N287        N  0.79296563  0.08038559  0.63386678    -0.75700
C288        C  0.79190423  0.05275555  0.59809522     0.85100
N289        N  0.75559511  0.05299667  0.57148855    -0.77500
C290        C  0.77455995  0.77053521  0.27263963     0.82500
N291        N  0.74011909  0.77621474  0.24381235    -0.75800
C292        C  0.73321301  0.74746219  0.20998379     0.85000
N293        N  0.76205121  0.71306256  0.20452840    -0.75700
C294        C  0.79688015  0.70667089  0.23276235     0.85100
N295        N  0.80268884  0.73549463  0.26681043    -0.77500
C296        C  0.71924078  0.89770688  0.42040663     0.82500
N297        N  0.75490497  0.92422926  0.42797581    -0.75800
C298        C  0.79213707  0.92193190  0.40221005     0.85000
N299        N  0.79336456  0.89207374  0.36819148    -0.75700
C300        C  0.75747562  0.86529706  0.36012556     0.85100
N301        N  0.72060388  0.86917447  0.38605044    -0.77500
C302        C  0.94572603  0.57950151  0.20801412     0.82500
N303        N  0.91402423  0.61183136  0.21164615    -0.75800
C304        C  0.88709463  0.61322516  0.24833142     0.85000
N305        N  0.89243773  0.58199431  0.28108684    -0.75700
C306        C  0.92299159  0.54906450  0.27721958     0.85100
N307        N  0.94976029  0.54834247  0.24087599    -0.77500
C308        C  0.59760522  0.77749743  0.07272247     0.82500
N309        N  0.63198014  0.77130468  0.10149008    -0.75800
C310        C  0.63644425  0.73205833  0.12434812     0.85000
N311        N  0.60584489  0.69928745  0.11804500    -0.75700
C312        C  0.57074574  0.70587190  0.09026966     0.85100
N313        N  0.56721017  0.74484861  0.06761058    -0.77500
C314        C  0.21976209  0.73377959  0.28156813     0.82500
N315        N  0.21846832  0.70352692  0.24851119    -0.75800
C316        C  0.24726938  0.70524016  0.21362024     0.85000
N317        N  0.27831164  0.73815172  0.21212343    -0.75700
C318        C  0.28088160  0.76884906  0.24499712     0.85100
N319        N  0.25126123  0.76656162  0.27971810    -0.77500
C320        C  0.43023350  0.90020989  0.30087618     0.82500
N321        N  0.39728433  0.86930693  0.30434439    -0.75800
C322        C  0.36921488  0.86186401  0.26976606     0.85000
N323        N  0.37410067  0.88663315  0.23161827    -0.75700
C324        C  0.40631522  0.91844861  0.22820981     0.85100
N325        N  0.43424386  0.92474327  0.26285206    -0.77500
C326        C  0.09222842  0.71018812  0.42893151     0.82500
N327        N  0.12504748  0.71560137  0.39777935    -0.75800
C328        C  0.12780455  0.75387841  0.37281887     0.85000
N329        N  0.09696290  0.78644979  0.37943339    -0.75700
C330        C  0.06354471  0.78091122  0.40977531     0.85100
N331        N  0.06171997  0.74285558  0.43439647    -0.77500
C332        C  0.30406245  0.55986167  0.08157199     0.82500
N333        N  0.26801427  0.55701367  0.05487704    -0.75800
C334        C  0.23366699  0.58602163  0.05853074     0.85000
N335        N  0.23534773  0.61820907  0.09006918    -0.75700
C336        C  0.27168818  0.62188581  0.11693344     0.85100
N337        N  0.30599261  0.59279800  0.11190117    -0.77500
O338        O  0.98228267  0.92168338  0.54671657    -0.77800
O339        O  0.03753584  0.10316961  0.50791702    -0.77900
O340        O  0.05699208  0.98113292  0.55958269    -0.77900
O341        O  0.93615981  0.00605749  0.56389443    -0.77800
O342        O  0.09215701  0.03058677  0.51712935    -0.77900
O343        O  0.90431404  0.95786116  0.52312777    -0.77900
O344        O  0.98975768  0.08088636  0.55906617    -0.77800
O345        O  0.04665071  0.89313536  0.53123319    -0.77900
C346        C  0.00842733  0.88847339  0.54888539     1.11800
C347        C  0.02088766  0.10671569  0.54603911     1.11700
C348        C  0.09095186  0.00444727  0.55117466     1.11900
C349        C  0.90201568  0.98433813  0.55565832     1.11700
O350        O  0.93718339  0.97519951  0.43401003    -0.77800
O351        O  0.06341444  0.00435299  0.42873298    -0.77900
O352        O  0.01595681  0.92035422  0.45047123    -0.77900
O353        O  0.95490843  0.09859399  0.47306077    -0.77800
O354        O  0.00588077  0.07788098  0.42454387    -0.77900
O355        O  0.95208830  0.89033341  0.46801703    -0.77900
O356        O  0.90007742  0.02356539  0.47358063    -0.77800
O357        O  0.09272828  0.95885415  0.47575056    -0.77900
Co358      Co  0.96332324  0.95083457  0.48822723     1.51500
Co359      Co  0.04653105  0.05084179  0.47003301     1.51700
Co360      Co  0.03279211  0.95246064  0.50722394     1.51600
Co361      Co  0.94819098  0.04958818  0.51686302     1.51500
O362        O  0.99767698  0.00965183  0.49464153    -1.39800
C363        C  0.90142079  0.99517191  0.44186536     1.11800
C364        C  0.09739409  0.98432516  0.44215884     1.11900
C365        C  0.98976832  0.88711277  0.44876759     1.11800
C366        C  0.97478691  0.10375682  0.43645151     1.11800
C367        C  0.00705780  0.84657958  0.42924101    -0.11000
C368        C  0.03113954  0.81610445  0.41797976    -0.12500
C369        C  0.24248298  0.67197819  0.17706396    -0.14100
C370        C  0.27596357  0.65819536  0.15049702    -0.29300
H371        H  0.21048387  0.65592568  0.17399894     0.14900
H372        H  0.30894592  0.67119338  0.15619326     0.15500
C373        C  0.16411352  0.76121610  0.33864110    -0.14100
C374        C  0.18769466  0.72812102  0.31981762    -0.29300
H375        H  0.16939322  0.79481339  0.32639716     0.14900
H376        H  0.17957741  0.69429739  0.32950342     0.15500
C377        C  0.33309001  0.82746497  0.27493893    -0.14100
C378        C  0.31507006  0.80525766  0.24067459    -0.29300
H379        H  0.32290844  0.81834248  0.30839768     0.14900
H380        H  0.32790975  0.81215759  0.20761893     0.15500
C381        C  0.82972192  0.95205964  0.41140996    -0.11000
C382        C  0.86067704  0.97587038  0.42302055    -0.12500
C383        C  0.69556648  0.75570793  0.17824187    -0.14100
C384        C  0.67507806  0.72368734  0.15481874    -0.29300
H385        H  0.68281217  0.78927281  0.17581359     0.14900
H386        H  0.68539306  0.68954736  0.15990892     0.15500
C387        C  0.82961076  0.66998713  0.22405923    -0.14100
C388        C  0.85484972  0.65048806  0.25586992    -0.29300
H389        H  0.83166778  0.65750661  0.19059161     0.14900
H390        H  0.84982818  0.66044822  0.28992259     0.15500
C391        C  0.78236091  0.80247193  0.31005546    -0.14100
C392        C  0.75432459  0.83608217  0.32015534    -0.29300
H393        H  0.81115083  0.79705017  0.33085731     0.14900
H394        H  0.72415998  0.83939887  0.30095743     0.15500
C395        C  0.82902425  0.02322913  0.58714826    -0.11000
C396        C  0.86008356  0.00068951  0.57397570    -0.12500
C397        C  0.78994300  0.15910501  0.69835244    -0.14100
C398        C  0.75492932  0.13756962  0.68169100    -0.29300
H399        H  0.82252426  0.15211049  0.68473932     0.14900
H400        H  0.72207412  0.14740374  0.69259536     0.15500
C401        C  0.71025196  0.25110609  0.81245581    -0.14100
C402        C  0.68341286  0.22025613  0.83109504    -0.29300
H403        H  0.70612439  0.28530550  0.82226653     0.14900
H404        H  0.68952950  0.18564722  0.82401801     0.15500
C405        C  0.85118656  0.30058730  0.74525135    -0.14100
C406        C  0.86638327  0.32604484  0.77815207    -0.29300
H407        H  0.86541091  0.30451354  0.71230134     0.14900
H408        H  0.85528550  0.31967973  0.81192566     0.15500
C409        C  0.33674293  0.23510223  0.18487545    -0.14100
C410        C  0.31203822  0.26801400  0.20208254    -0.29300
H411        H  0.33187300  0.20159575  0.19757384     0.14900
H412        H  0.31403122  0.30081672  0.18692543     0.15500
C413        C  0.15905347  0.33925885  0.24283040    -0.14100
C414        C  0.17551456  0.31687786  0.27861263    -0.29300
H415        H  0.17176689  0.33099535  0.21028961     0.14900
H416        H  0.16075022  0.32217382  0.31094796     0.15500
C417        C  0.17311726  0.02695220  0.42634536    -0.11000
C418        C  0.14067216  0.00320438  0.43125160    -0.12500
C419        C  0.23068411  0.16640702  0.36263203    -0.14100
C420        C  0.26286557  0.18697899  0.33852017    -0.29300
H421        H  0.19660428  0.17631720  0.35679259     0.14900
H422        H  0.29648689  0.17451110  0.34138384     0.15500
C423        C  0.01160140  0.42996932  0.86106385    -0.11000
C424        C  0.98962284  0.41843561  0.82951171    -0.12500
C425        C  0.97588219  0.57786231  0.16981562    -0.11000
C426        C  0.99990204  0.57236834  0.13757042    -0.12500
C427        C  0.01684807  0.43016308  0.13421329    -0.11000
C428        C  0.03737820  0.41949994  0.16749590    -0.12500
C429        C  0.19517010  0.58104360  0.02937219    -0.11000
C430        C  0.16288801  0.57167114  0.00687653    -0.12500
C431        C  0.83025990  0.41403756  0.05560312    -0.11000
C432        C  0.86474914  0.42471983  0.03714484    -0.12500
C433        C  0.94643268  0.17947580  0.40394905    -0.11000
C434        C  0.96259759  0.14329380  0.41165406    -0.12500
C435        C  0.67286295  0.18667385  0.24086080    -0.14100
C436        C  0.65345110  0.16198646  0.27355087    -0.29300
H437        H  0.66099210  0.18310515  0.20721885     0.14900
H438        H  0.66293171  0.16808425  0.30755496     0.15500
C439        C  0.72870183  0.33830680  0.16232859    -0.14100
C440        C  0.75956514  0.31809492  0.18778391    -0.29300
H441        H  0.69409574  0.32970399  0.16737357     0.14900
H442        H  0.79362809  0.32947419  0.18529151     0.15500
C443        C  0.80372143  0.24048754  0.32558240    -0.14100
C444        C  0.82886684  0.27382713  0.34175174    -0.29300
H445        H  0.80767503  0.20732342  0.33943011     0.14900
H446        H  0.82272355  0.30753412  0.33033211     0.15500
C447        C  0.05037674  0.58557913  0.82543696    -0.11000
C448        C  0.02777800  0.57588632  0.85798470    -0.12500
C449        C  0.13223991  0.99101953  0.57186307    -0.11000
C450        C  0.16581524  0.97089326  0.58169480    -0.12500
C451        C  0.18131651  0.66596247  0.76859339    -0.14100
C452        C  0.20119712  0.68954636  0.73564217    -0.29300
H453        H  0.18967748  0.67332056  0.80262807     0.14900
H454        H  0.19013076  0.68454977  0.70191795     0.15500
C455        C  0.27069726  0.82844449  0.68052407    -0.14100
C456        C  0.23570144  0.84412306  0.65737922    -0.29300
H457        H  0.30278380  0.84413845  0.67584304     0.14900
H458        H  0.20296646  0.83117231  0.66516424     0.15500
C459        C  0.32266013  0.76371825  0.82142601    -0.14100
C460        C  0.34390554  0.72942233  0.84130615    -0.29300
H461        H  0.33140347  0.79704849  0.83113876     0.14900
H462        H  0.33847155  0.69624132  0.82913554     0.15500
C463        C  0.57996676  0.85282745  0.02941130    -0.11000
C464        C  0.59164515  0.81895505  0.04832973    -0.18300
C465        C  0.41317168  0.81664951  0.96058484    -0.11000
C466        C  0.42136027  0.84995592  0.98115071    -0.12500
C467        C  0.57288059  0.02420022  0.15093510    -0.11000
C468        C  0.58069181  0.04536347  0.18413099    -0.12500
C469        C  0.42172985  0.96540793  0.15346706    -0.11000
C470        C  0.41227737  0.94492139  0.18750471    -0.12500
C471        C  0.42057458  0.14024160  0.03306029    -0.11000
C472        C  0.41075189  0.17262858  0.05463079    -0.12500
C473        C  0.57756086  0.13832242  0.97767102    -0.11000
C474        C  0.59117326  0.16979390  0.95594756    -0.12500
C475        C  0.05810366  0.17592751  0.58468872    -0.11000
C476        C  0.03833851  0.14283156  0.57264046    -0.12500
C477        C  0.42152891  0.02573304  0.85878400    -0.11000
C478        C  0.41430691  0.04677761  0.82463305    -0.12500
C479        C  0.18967550  0.42194039  0.96820127    -0.11000
C480        C  0.15873043  0.43272373  0.99228002    -0.12500
C481        C  0.19031784  0.24021949  0.68643911    -0.14100
C482        C  0.16441210  0.27148184  0.66674771    -0.29300
H483        H  0.18930965  0.20687783  0.67356084     0.14900
H484        H  0.16803873  0.30557090  0.67700682     0.15500
C485        C  0.34197698  0.16671238  0.73589079    -0.14100
C486        C  0.32466925  0.19192003  0.76875344    -0.29300
H487        H  0.33042733  0.17261479  0.70230758     0.14900
H488        H  0.33842233  0.18857139  0.80179536     0.15500
C489        C  0.23870399  0.32438457  0.82015234    -0.14100
C490        C  0.27037699  0.34113315  0.84715873    -0.29300
H491        H  0.20596293  0.33922137  0.82094582     0.14900
H492        H  0.30385643  0.32855115  0.84343984     0.15500
C493        C  0.82855497  0.59336318  0.93794150    -0.11000
C494        C  0.86376185  0.58461268  0.95575973    -0.12500
C495        C  0.96691116  0.81374499  0.57195167    -0.11000
C496        C  0.99035166  0.84617522  0.56481563    -0.12500
C497        C  0.76699190  0.68259646  0.79822010    -0.14100
C498        C  0.73431423  0.66510303  0.82411904    -0.29300
H499        H  0.80007515  0.66869231  0.80070389     0.14900
H500        H  0.70055814  0.67651128  0.81921167     0.15500
C501        C  0.81783180  0.76668661  0.66380014    -0.14100
C502        C  0.84111842  0.73304482  0.64508289    -0.29300
H503        H  0.82259878  0.80008088  0.65081057     0.14900
H504        H  0.83354270  0.69943823  0.65597198     0.15500
C505        C  0.58357343  0.95007973  0.82307879    -0.11000
C506        C  0.57322230  0.96928957  0.85706070    -0.12500
C507        C  0.66809625  0.84754335  0.72435105    -0.14100
C508        C  0.68760514  0.81984393  0.75417046    -0.29300
H509        H  0.67826301  0.84552183  0.68990124     0.14900
H510        H  0.67464985  0.81933964  0.78779534     0.15500
C511        C  0.44565095  0.32361316  0.09642808    -0.11000
C512        C  0.46654789  0.35522451  0.08181801    -0.12500
C513        C  0.55491820  0.35484688  0.91395535    -0.11000
C514        C  0.57395976  0.32139394  0.90203861    -0.12500
C515        C  0.64919253  0.49395834  0.06962195    -0.11000
C516        C  0.68109128  0.47137041  0.07992135    -0.12500
C517        C  0.67874080  0.53642511  0.91195979    -0.11000
C518        C  0.64742388  0.51292583  0.92347627    -0.12500
C519        C  0.51415914  0.64108561  0.07062820    -0.11000
C520        C  0.53828169  0.67103177  0.08244330    -0.12500
C521        C  0.47791235  0.67638608  0.91858347    -0.11000
C522        C  0.50276514  0.64620377  0.92875259    -0.12500
C523        C  0.37316476  0.50578367  0.06806400    -0.11000
C524        C  0.34095766  0.52884141  0.07629559    -0.12500
C525        C  0.33577149  0.47105195  0.91881320    -0.11000
C526        C  0.36911485  0.49252629  0.92645231    -0.12500
C527        C  0.08435810  0.46727236  0.31306977    -0.11000
C528        C  0.07540750  0.49053695  0.34450496    -0.12500
C529        C  0.93990045  0.49556762  0.34631342    -0.11000
C530        C  0.92998884  0.51744018  0.31355756    -0.12500
C531        C  0.09166883  0.53961703  0.63995343    -0.11000
C532        C  0.10255704  0.55791819  0.67410003    -0.12500
C533        C  0.92747090  0.44372264  0.68208314    -0.11000
C534        C  0.93421816  0.46126287  0.64621795    -0.12500
C535        C  0.09026216  0.32614451  0.53083996    -0.11000
C536        C  0.08207160  0.35778214  0.50631188    -0.12500
C537        C  0.93772318  0.35923835  0.48568897    -0.11000
C538        C  0.92474709  0.32850234  0.46286857    -0.12500
C539        C  0.92339460  0.66800280  0.51928486    -0.11000
C540        C  0.93323704  0.63542952  0.49758709    -0.12500
C541        C  0.08831360  0.66958155  0.45592313    -0.11000
C542        C  0.07932522  0.63594538  0.47725635    -0.12500
C543        C  0.46539160  0.07860182  0.67318926    -0.11000
C544        C  0.48691265  0.06675630  0.64084757    -0.12500
C545        C  0.52836724  0.91675674  0.67561080    -0.11000
C546        C  0.50365748  0.92421311  0.64441307    -0.12500
C547        C  0.31692862  0.07974731  0.47645653    -0.11000
C548        C  0.34911141  0.06845214  0.49849100    -0.12500
C549        C  0.34471533  0.93094004  0.51083594    -0.11000
C550        C  0.31210846  0.92274025  0.53346722    -0.12500
C551        C  0.50191875  0.06742390  0.36365920    -0.11000
C552        C  0.52480728  0.07793172  0.33170922    -0.12500
C553        C  0.48238051  0.91934881  0.36971596    -0.11000
C554        C  0.46009219  0.90845204  0.33798142    -0.12500
C555        C  0.64572614  0.07002855  0.53643712    -0.11000
C556        C  0.68082978  0.07798571  0.55381435    -0.12500
C557        C  0.64380054  0.91237744  0.46492837    -0.11000
C558        C  0.67842813  0.90259311  0.44633063    -0.12500
loop_ 
_geom_bond_atom_site_label_1 
_geom_bond_atom_site_label_2 
_geom_bond_distance 
_geom_bond_site_symmetry_2 
_ccdc_geom_bond_type 
O1            C9   1.261       .  A
O1          Co21   1.982   1_565  S
O2           C10   1.281       .  A
O2          Co22   2.052   1_565  S
O3           C11   1.254       .  A
O3          Co23   1.956       .  S
O4           C12   1.263       .  A
O4          Co24   1.956       .  S
O5           C11   1.274       .  A
O5          Co22   2.060   1_565  S
O6           C12   1.290       .  A
O6          Co21   2.087   1_565  S
O7           C10   1.275       .  A
O7          Co24   1.953       .  S
O8            C9   1.279       .  A
O8          Co23   2.029       .  S
C9          C557   1.459       .  S
C10         C549   1.454       .  S
C11         C546   1.462       .  S
C12         C553   1.461       .  S
O13          C26   1.251       .  A
O13         Co21   1.954       .  S
O14          C27   1.264       .  A
O14         Co22   1.960       .  S
O15          C28   1.261       .  A
O15         Co23   1.974   1_545  S
O16          C29   1.281       .  A
O16         Co24   2.055   1_545  S
O17          C29   1.278       .  A
O17         Co22   1.963       .  S
O18          C28   1.272       .  A
O18         Co21   2.004       .  S
O19          C26   1.271       .  A
O19         Co24   2.057   1_545  S
O20          C27   1.291       .  A
O20         Co23   2.097   1_545  S
Co21         O25   2.045   1_545  S
Co22         O25   2.063   1_545  S
Co23         O25   2.049       .  S
Co24         O25   2.059       .  S
C26         C551   1.459       .  S
C27         C544   1.471       .  S
C28         C555   1.439       .  S
C29         C548   1.465       .  S
O30          C38   1.254       .  A
O30         Co50   1.958       .  S
O31          C39   1.260       .  A
O31         Co51   1.955   1_655  S
O32          C40   1.283       .  A
O32         Co52   2.055   1_655  S
O33          C41   1.259       .  A
O33         Co53   1.969   1_655  S
O34          C40   1.274       .  A
O34         Co51   1.953   1_655  S
O35          C41   1.274       .  A
O35         Co50   2.012       .  S
O36          C39   1.294       .  A
O36         Co53   2.110   1_655  S
O37          C38   1.275       .  A
O37         Co52   2.066   1_655  S
C38         C540   1.469       .  S
C39         C537   1.474       .  S
C40         C529   1.454       .  S
C41         C534   1.444       .  S
O42          C55   1.263       .  A
O42         Co50   1.985   1_455  S
O43          C56   1.281       .  A
O43         Co51   2.049       .  S
O44          C57   1.263       .  A
O44         Co52   1.960       .  S
O45          C58   1.253       .  A
O45         Co53   1.954       .  S
O46          C58   1.272       .  A
O46         Co51   2.063       .  S
O47          C57   1.289       .  A
O47         Co50   2.084   1_455  S
O48          C55   1.280       .  A
O48         Co53   2.030       .  S
O49          C56   1.277       .  A
O49         Co52   1.956       .  S
Co50         O54   2.054   1_655  S
Co51         O54   2.062       .  S
Co52         O54   2.065       .  S
Co53         O54   2.054       .  S
C55         C531   1.462       .  S
C56         C528   1.455       .  S
C57         C542   1.463       .  S
C58         C536   1.466       .  S
O59          C67   1.264       .  A
O59         Co79   1.957       .  S
O60          C68   1.254       .  A
O60         Co80   1.959       .  S
O61          C69   1.263       .  A
O61         Co81   1.988   1_554  S
O62          C70   1.277       .  A
O62         Co82   2.047   1_554  S
O63          C69   1.275       .  A
O63         Co80   2.023       .  S
O64          C70   1.277       .  A
O64         Co79   1.962       .  S
O65          C68   1.270       .  A
O65         Co82   2.049   1_554  S
O66          C67   1.289       .  A
O66         Co81   2.085   1_554  S
C67         C523   1.461       .  S
C68         C515   1.455       .  S
C69         C512   1.456       .  S
C70         C519   1.455       .  S
O71          C84   1.279       .  A
O71         Co79   2.047   1_556  S
O72          C85   1.264       .  A
O72         Co80   1.990   1_556  S
O73          C86   1.258       .  A
O73         Co81   1.963       .  S
O74          C87   1.265       .  A
O74         Co82   1.956       .  S
O75          C87   1.294       .  A
O75         Co80   2.100   1_556  S
O76          C86   1.273       .  A
O76         Co79   2.054   1_556  S
O77          C84   1.275       .  A
O77         Co82   1.954       .  S
O78          C85   1.277       .  A
O78         Co81   2.022       .  S
Co79         O83   2.050   1_554  S
Co80         O83   2.036   1_554  S
Co81         O83   2.048       .  S
Co82         O83   2.053       .  S
C84         C522   1.450       .  S
C85         C513   1.458       .  S
C86         C526   1.462       .  S
C87         C518   1.469       .  S
C88         C505   1.470       .  S
C88          N89   1.363       .  A
C88          N93   1.374       .  A
N89          C90   1.361       .  A
C90         C545   1.465       .  S
C90          N91   1.364       .  A
N91          C92   1.367       .  A
C92          N93   1.374       .  A
C92         C507   1.513       .  S
C94          N95   1.374       .  A
C94          N99   1.365       .  A
C94         C508   1.514       .  S
N95          C96   1.376       .  A
C96          N97   1.368       .  A
C96         C501   1.519       .  S
N97          C98   1.368       .  A
C98          N99   1.363       .  A
C98         C497   1.504       .  S
C100        C495   1.467       .  S
C100        N101   1.364       .  A
C100        N105   1.372       .  A
N101        C102   1.361       .  A
C102        C539   1.472       .  S
C102        N103   1.368       .  A
N103        C104   1.372       .  A
C104        N105   1.371       .  A
C104        C502   1.516       .  S
C106        C493   1.462       .  S
C106        N107   1.364       .  A
C106        N111   1.367       .  A
N107        C108   1.366       .  A
C108        N109   1.370       .  A
C108        C498   1.503       .  S
N109        C110   1.368       .  A
C110        C517   1.474       .  S
C110        N111   1.365       .  A
C112        N113   1.373       .  A
C112        N117   1.366       .  A
C112        C486   1.515       .  S
N113        C114   1.373       .  A
C114        N115   1.374       .  A
C114        C489   1.523       .  S
N115        C116   1.372       .  A
C116        N117   1.367       .  A
C116        C481   1.513       .  S
C118        C525   1.465       .  S
C118        N119   1.364       .  A
C118        N123   1.359       .  A
N119        C120   1.368       .  A
C120        N121   1.377       .  A
C120        C490   1.520       .  S
N121        C122   1.378       .  A
C122        C479   1.474       .  S
C122        N123   1.362       .  A
C124        C478   1.465       .  S
C124        N125   1.365       .  A
C124        N129   1.370       .  A
N125        C126   1.363       .  A
C126        C543   1.475       .  S
C126        N127   1.369       .  A
N127        C128   1.372       .  A
C128        N129   1.369       .  A
C128        C485   1.513       .  S
C130        C475   1.470       .  S
C130        N131   1.372       .  A
C130        N135   1.365       .  A
N131        C132   1.373       .  A
C132        N133   1.369       .  A
C132        C482   1.513       .  S
N133        C134   1.366       .  A
C134        C535   1.469       .  S
C134        N135   1.362       .  A
O136        C144   1.244       .  A
O136       Co156   1.961       .  S
O137        C145   1.242       .  A
O137       Co157   1.957       .  S
O138        C146   1.244       .  A
O138       Co158   1.953       .  S
O139        C147   1.245       .  A
O139       Co159   1.958       .  S
O140        C146   1.267   1_554  A
O140       Co157   2.059       .  S
O141        C147   1.267   1_556  A
O141       Co156   2.056       .  S
O142        C145   1.267   1_565  A
O142       Co159   2.065       .  S
O143        C144   1.269   1_545  A
O143       Co158   2.074       .  S
C144        C506   1.468       .  S
C145        C467   1.460       .  S
C146        C473   1.451       .  S
C147        C463   1.452       .  S
O148        C161   1.245       .  A
O148       Co156   1.957       .  S
O149        C162   1.244       .  A
O149       Co157   1.955       .  S
O150        C163   1.244       .  A
O150       Co158   1.958       .  S
O151        C164   1.245       .  A
O151       Co159   1.960       .  S
O152        C164   1.269   1_545  A
O152       Co157   2.069       .  S
O153        C163   1.268   1_565  A
O153       Co156   2.065       .  S
O154        C161   1.267   1_554  A
O154       Co159   2.057       .  S
O155        C162   1.268   1_556  A
O155       Co158   2.066       .  S
Co156       O160   2.176   1_556  S
Co157       O160   2.176   1_545  S
Co158       O160   2.176   1_546  S
Co159       O160   2.179       .  S
C161        C466   1.452       .  S
C162        C471   1.457       .  S
C163        C477   1.462       .  S
C164        C469   1.464       .  S
C165        N166   1.363       .  A
C165        N170   1.372       .  A
C165        C459   1.500       .  S
N166        C167   1.360       .  A
C167        N168   1.362       .  A
C167        C455   1.498       .  S
N168        C169   1.366       .  A
C169        N170   1.373       .  A
C169        C452   1.502       .  S
C171        C465   1.455       .  S
C171        N172   1.367       .  A
C171        N176   1.359       .  A
N172        C173   1.369       .  A
C173        N174   1.367       .  A
C173        C460   1.504       .  S
N174        C175   1.365       .  A
C175        C521   1.456       .  S
C175        N176   1.358       .  A
C177        C450   1.457       .  S
C177        N178   1.361       .  A
C177        N182   1.362       .  A
N178        C179   1.362       .  A
C179        C550   1.459       .  S
C179        N180   1.367       .  A
N180        C181   1.368       .  A
C181        N182   1.365       .  A
C181        C456   1.497       .  S
C183        C532   1.468       .  S
C183        N184   1.367       .  A
C183        N188   1.368       .  A
N184        C185   1.365       .  A
C185        C447   1.469       .  S
C185        N186   1.364       .  A
N186        C187   1.366       .  A
C187        N188   1.370       .  A
C187        C451   1.504       .  S
C189        N190   1.368       .  A
C189        N194   1.362       .  A
C189        C440   1.498       .  S
N190        C191   1.370       .  A
C191        N192   1.370       .  A
C191        C435   1.511       .  S
N192        C193   1.370       .  A
C193        N194   1.361       .  A
C193        C443   1.501       .  S
C195        C433   1.455       .  S
C195        N196   1.366       .  A
C195        N200   1.360       .  A
N196        C197   1.365       .  A
C197        C538   1.478       .  S
C197        N198   1.370       .  A
N198        C199   1.372       .  A
C199        N200   1.362       .  A
C199        C444   1.501       .  S
C201        C431   1.460       .  S
C201        N202   1.364       .  A
C201        N206   1.367       .  A
N202        C203   1.361       .  A
C203        C516   1.459       .  S
C203        N204   1.362       .  A
N204        C205   1.365       .  A
C205        N206   1.368       .  A
C205        C439   1.499       .  S
C207        C468   1.463       .  S
C207        N208   1.370       .  A
C207        N212   1.362       .  A
N208        C209   1.371       .  A
C209        N210   1.369       .  A
C209        C436   1.510       .  S
N210        C211   1.366       .  A
C211        C552   1.464       .  S
C211        N212   1.360       .  A
O213        C221   1.264       .  A
O213       Co233   1.986       .  S
O214        C222   1.281   1_554  A
O214       Co234   2.052       .  S
O215        C223   1.256       .  A
O215       Co235   1.957   1_455  S
O216        C224   1.267       .  A
O216       Co236   1.958       .  S
O217        C223   1.276       .  A
O217       Co234   2.061       .  S
O218        C224   1.291   1_655  A
O218       Co233   2.089       .  S
O219        C222   1.278       .  A
O219       Co236   1.967       .  S
O220        C221   1.278   1_554  A
O220       Co235   2.020       .  S
C221        C494   1.456       .  S
C222        C430   1.467   1_556  S
C223        C426   1.466   1_455  S
C224        C448   1.466       .  S
O225        C238   1.254       .  A
O225       Co233   1.958   1_455  S
O226        C239   1.264       .  A
O226       Co234   1.958       .  S
O227        C240   1.260       .  A
O227       Co235   1.979       .  S
O228        C241   1.275   1_556  A
O228       Co236   2.045       .  S
O229        C241   1.279       .  A
O229       Co234   1.978       .  S
O230        C240   1.276   1_556  A
O230       Co233   2.025       .  S
O231        C238   1.272       .  A
O231       Co236   2.053       .  S
O232        C239   1.289   1_655  A
O232       Co235   2.083       .  S
Co233       O237   2.039       .  S
Co234       O237   2.066   1_454  S
Co235       O237   2.053   1_554  S
Co236       O237   2.062   1_455  S
C238        C423   1.456       .  S
C239        C427   1.460       .  S
C240        C432   1.455       .  S
C241        C480   1.469   1_554  S
C242        C417   1.462       .  S
C242        N243   1.363       .  A
C242        N247   1.360       .  A
N243        C244   1.366       .  A
C244        N245   1.374       .  A
C244        C419   1.512       .  S
N245        C246   1.375       .  A
C246        C547   1.470       .  S
C246        N247   1.363       .  A
C248        N249   1.368       .  A
C248        N253   1.374       .  A
C248        C420   1.514       .  S
N249        C250   1.366       .  A
C250        N251   1.363       .  A
C250        C410   1.500       .  S
N251        C252   1.364       .  A
C252        N253   1.374       .  A
C252        C414   1.510       .  S
C254        C428   1.464       .  S
C254        N255   1.366       .  A
C254        N259   1.359       .  A
N255        C256   1.370       .  A
C256        N257   1.369       .  A
C256        C413   1.507       .  S
N257        C258   1.369       .  A
C258        C527   1.460       .  S
C258        N259   1.361       .  A
C260        C472   1.460       .  S
C260        N261   1.362       .  A
C260        N265   1.360       .  A
N261        C262   1.366       .  A
C262        N263   1.370       .  A
C262        C409   1.500       .  S
N263        C264   1.368       .  A
C264        C511   1.460       .  S
C264        N265   1.362       .  A
C266        N267   1.360       .  A
C266        N271   1.357       .  A
C266        C405   1.487       .  S
N267        C268   1.364       .  A
C268        N269   1.375       .  A
C268        C401   1.502       .  S
N269        C270   1.375       .  A
C270        N271   1.360       .  A
C270        C397   1.502       .  S
C272        C533   1.451       .  S
C272        N273   1.364       .  A
C272        N277   1.359       .  A
N273        C274   1.363       .  A
C274        C424   1.459       .  S
C274        N275   1.364       .  A
N275        C276   1.365       .  A
C276        N277   1.362       .  A
C276        C406   1.489       .  S
C278        C514   1.462       .  S
C278        N279   1.362       .  A
C278        N283   1.370       .  A
N279        C280   1.359       .  A
C280        C474   1.455       .  S
C280        N281   1.360       .  A
N281        C282   1.363       .  A
C282        N283   1.372       .  A
C282        C402   1.503       .  S
C284        C556   1.446       .  S
C284        N285   1.354       .  A
C284        N289   1.360       .  A
N285        C286   1.357       .  A
C286        N287   1.376       .  A
C286        C398   1.501       .  S
N287        C288   1.377       .  A
C288        C395   1.472       .  S
C288        N289   1.362       .  A
C290        N291   1.369       .  A
C290        N295   1.370       .  A
C290        C391   1.517       .  S
N291        C292   1.369       .  A
C292        N293   1.367       .  A
C292        C383   1.509       .  S
N293        C294   1.369       .  A
C294        N295   1.370       .  A
C294        C387   1.510       .  S
C296        C558   1.466       .  S
C296        N297   1.365       .  A
C296        N301   1.360       .  A
N297        C298   1.367       .  A
C298        C381   1.485       .  S
C298        N299   1.379       .  A
N299        C300   1.377       .  A
C300        N301   1.364       .  A
C300        C392   1.510       .  S
C302        C425   1.468       .  S
C302        N303   1.373       .  A
C302        N307   1.362       .  A
N303        C304   1.372       .  A
C304        N305   1.366       .  A
C304        C388   1.508       .  S
N305        C306   1.363       .  A
C306        C530   1.459       .  S
C306        N307   1.360       .  A
C308        C464   1.454       .  S
C308        N309   1.368       .  A
C308        N313   1.359       .  A
N309        C310   1.369       .  A
C310        N311   1.371       .  A
C310        C384   1.508       .  S
N311        C312   1.367       .  A
C312        C520   1.461       .  S
C312        N313   1.357       .  A
C314        N315   1.365       .  A
C314        N319   1.374       .  A
C314        C374   1.511       .  S
N315        C316   1.363       .  A
C316        N317   1.367       .  A
C316        C369   1.513       .  S
N317        C318   1.372       .  A
C318        N319   1.376       .  A
C318        C378   1.512       .  S
C320        C554   1.466       .  S
C320        N321   1.367       .  A
C320        N325   1.361       .  A
N321        C322   1.370       .  A
C322        N323   1.371       .  A
C322        C377   1.512       .  S
N323        C324   1.370       .  A
C324        C470   1.466       .  S
C324        N325   1.363       .  A
C326        C541   1.466       .  S
C326        N327   1.371       .  A
C326        N331   1.362       .  A
N327        C328   1.372       .  A
C328        N329   1.371       .  A
C328        C373   1.516       .  S
N329        C330   1.368       .  A
C330        C368   1.468       .  S
C330        N331   1.360       .  A
C332        C524   1.466       .  S
C332        N333   1.361       .  A
C332        N337   1.365       .  A
N333        C334   1.363       .  A
C334        C429   1.471       .  S
C334        N335   1.374       .  A
N335        C336   1.373       .  A
C336        N337   1.368       .  A
C336        C370   1.512       .  S
O338        C346   1.278   1_655  A
O338       Co358   2.045       .  S
O339        C347   1.260       .  A
O339       Co359   1.985       .  S
O340        C348   1.266   1_565  A
O340       Co360   1.960       .  S
O341        C349   1.250   1_545  A
O341       Co361   1.953       .  S
O342        C348   1.286       .  A
O342       Co359   2.070       .  S
O343        C349   1.279       .  A
O343       Co358   2.079       .  S
O344        C347   1.278   1_655  A
O344       Co361   2.037       .  S
O345        C346   1.276       .  A
O345       Co360   1.968       .  S
C346        C496   1.463   1_455  S
C347        C476   1.465       .  S
C348        C449   1.452   1_545  S
C349        C396   1.468   1_565  S
O350        C363   1.260       .  A
O350       Co358   1.954       .  S
O351        C364   1.257   1_545  A
O351       Co359   1.960       .  S
O352        C365   1.280   1_455  A
O352       Co360   2.050       .  S
O353        C366   1.263       .  A
O353       Co361   1.979       .  S
O354        C366   1.276   1_455  A
O354       Co359   2.010       .  S
O355        C365   1.280       .  A
O355       Co358   1.967       .  S
O356        C363   1.297   1_545  A
O356       Co361   2.119       .  S
O357        C364   1.270       .  A
O357       Co360   2.048       .  S
Co358       O362   2.070   1_565  S
Co359       O362   2.058   1_455  S
Co360       O362   2.058   1_465  S
Co361       O362   2.039       .  S
C363        C382   1.482       .  S
C364        C418   1.460   1_565  S
C365        C367   1.463   1_655  S
C366        C434   1.448       .  S
C367        C368   1.225       .  T
C369        C370   1.357       .  D
C369        H371   1.086       .  S
C370        H372   1.086       .  S
C373        C374   1.358       .  D
C373        H375   1.086       .  S
C374        H376   1.086       .  S
C377        C378   1.358       .  D
C377        H379   1.086       .  S
C378        H380   1.086       .  S
C381        C382   1.235       .  T
C383        C384   1.359       .  D
C383        H385   1.086       .  S
C384        H386   1.086       .  S
C387        C388   1.356       .  D
C387        H389   1.086       .  S
C388        H390   1.086       .  S
C391        C392   1.360       .  D
C391        H393   1.086       .  S
C392        H394   1.086       .  S
C395        C396   1.228       .  T
C397        C398   1.346       .  D
C397        H399   1.087       .  S
C398        H400   1.087       .  S
C401        C402   1.349       .  D
C401        H403   1.087       .  S
C402        H404   1.086       .  S
C405        C406   1.349       .  D
C405        H407   1.087       .  S
C406        H408   1.086       .  S
C409        C410   1.352       .  D
C409        H411   1.086       .  S
C410        H412   1.086       .  S
C413        C414   1.361       .  D
C413        H415   1.086       .  S
C414        H416   1.086       .  S
C417        C418   1.221       .  T
C419        C420   1.356       .  D
C419        H421   1.086       .  S
C420        H422   1.086       .  S
C423        C424   1.219   1_455  T
C425        C426   1.225       .  T
C427        C428   1.222       .  T
C429        C430   1.227       .  T
C431        C432   1.220       .  T
C433        C434   1.217       .  T
C435        C436   1.358       .  D
C435        H437   1.086       .  S
C436        H438   1.086       .  S
C439        C440   1.351       .  D
C439        H441   1.086       .  S
C440        H442   1.086       .  S
C443        C444   1.360       .  D
C443        H445   1.086       .  S
C444        H446   1.086       .  S
C447        C448   1.225       .  T
C449        C450   1.218       .  T
C451        C452   1.352       .  D
C451        H453   1.086       .  S
C452        H454   1.086       .  S
C455        C456   1.351       .  D
C455        H457   1.086       .  S
C456        H458   1.086       .  S
C459        C460   1.352       .  D
C459        H461   1.086       .  S
C460        H462   1.086       .  S
C463        C464   1.217       .  T
C465        C466   1.217       .  T
C467        C468   1.222       .  T
C469        C470   1.224       .  T
C471        C472   1.220       .  T
C473        C474   1.217       .  T
C475        C476   1.226       .  T
C477        C478   1.223       .  T
C479        C480   1.229       .  T
C481        C482   1.358       .  D
C481        H483   1.086       .  S
C482        H484   1.086       .  S
C485        C486   1.363       .  D
C485        H487   1.086       .  S
C486        H488   1.086       .  S
C489        C490   1.363       .  D
C489        H491   1.086       .  S
C490        H492   1.086       .  S
C493        C494   1.221       .  T
C495        C496   1.224       .  T
C497        C498   1.358       .  D
C497        H499   1.086       .  S
C498        H500   1.086       .  S
C501        C502   1.365       .  D
C501        H503   1.086       .  S
C502        H504   1.086       .  S
C505        C506   1.227       .  T
C507        C508   1.356       .  D
C507        H509   1.086       .  S
C508        H510   1.086       .  S
C511        C512   1.220       .  T
C513        C514   1.221       .  T
C515        C516   1.219       .  T
C517        C518   1.228       .  T
C519        C520   1.221       .  T
C521        C522   1.217       .  T
C523        C524   1.223       .  T
C525        C526   1.223       .  T
C527        C528   1.220       .  T
C529        C530   1.219       .  T
C531        C532   1.225       .  T
C533        C534   1.214       .  T
C535        C536   1.226       .  T
C537        C538   1.231       .  T
C539        C540   1.227       .  T
C541        C542   1.224       .  T
C543        C544   1.229       .  T
C545        C546   1.223       .  T
C547        C548   1.226       .  T
C549        C550   1.219       .  T
C551        C552   1.222       .  T
C553        C554   1.223       .  T
C555        C556   1.211       .  T
C557        C558   1.223       .  T
