geometry optimzed in LAMMPS
_audit_creation_date              2020-11-30 
_audit_creation_method            'lammps2cif' 
_symmetry_space_group_name_H-M    'P1' 
_symmetry_Int_Tables_number       1 
_symmetry_cell_setting            triclinic 
loop_ 
_symmetry_equiv_pos_as_xyz 
  x,y,z 
_cell_length_a                    57.89863681 
_cell_length_b                    57.99392948721706 
_cell_length_c                    30.37611374446784 
_cell_angle_alpha                 90.07631169729098 
_cell_angle_beta                  90.23076564168667 
_cell_angle_gamma                 119.9910612389086 
loop_ 
_atom_site_label 
_atom_site_type_symbol 
_atom_site_fract_x 
_atom_site_fract_y 
_atom_site_fract_z 
_atom_site_charge 
O1          O  0.78388590  0.26425895  0.20558031    -0.74800
O2          O  0.73612351  0.21677651  0.29315774    -0.74800
O3          O  0.73594282  0.21857113  0.20427439    -0.74900
O4          O  0.78408503  0.26197069  0.29490432    -0.74900
O5          O  0.76359943  0.28586224  0.29829840    -0.74900
O6          O  0.71573734  0.24273094  0.20636211    -0.74800
O7          O  0.71578177  0.24074415  0.29532075    -0.74800
O8          O  0.76331287  0.28802180  0.20914748    -0.74900
Ni9        Ni  0.76080421  0.23958332  0.24932539     1.25400
Ni10       Ni  0.73892617  0.26521587  0.25239057     1.25400
C11         C  0.78096239  0.28365017  0.19232896     0.87400
C12         C  0.71805186  0.22106089  0.30876889     0.87300
C13         C  0.71789743  0.22341530  0.19041194     0.87400
C14         C  0.78123379  0.28045965  0.31246091     0.87500
C15         C  0.49182764  0.87135247  0.98972754     0.79900
N16         N  0.48785343  0.85735682  0.45228448    -0.78400
C17         C  0.48341780  0.83202491  0.45150652     0.82300
N18         N  0.48457169  0.82135252  0.98868547    -0.78400
C19         C  0.48800229  0.83403322  0.02766061     0.82400
N20         N  0.49161050  0.85905675  0.02807162    -0.80100
C21         C  0.37664554  0.87624622  0.50354331     0.79900
N22         N  0.36558570  0.86348022  0.04267925    -0.78400
C23         C  0.34275612  0.83944847  0.04286093     0.82300
N24         N  0.33075348  0.82856225  0.50423558    -0.78400
C25         C  0.34060531  0.84090490  0.46534641     0.82400
N26         N  0.36368283  0.86472372  0.46512428    -0.80100
C27         C  0.50343164  0.12600975  0.99816856     0.79900
N28         N  0.50104534  0.13516232  0.45835191    -0.78400
C29         C  0.49975656  0.15790763  0.45720207     0.82300
N30         N  0.50216891  0.17221406  0.99624433    -0.78400
C31         C  0.50343632  0.16182816  0.03548655     0.82400
N32         N  0.50359700  0.13845424  0.03640545    -0.80100
C33         C  0.62654064  0.12441162  0.00079723     0.79900
N34         N  0.63750913  0.13811974  0.03893529    -0.78400
C35         C  0.65877270  0.16330563  0.03791205     0.82300
N36         N  0.66922670  0.17458757  0.99862265    -0.78400
C37         C  0.65711964  0.16214442  0.45880355     0.82400
N38         N  0.63585491  0.13709800  0.46009534    -0.80100
C39         C  0.50051051  0.97545501  0.00206188     0.01900
C40         C  0.47666590  0.97648736  0.00485881     0.01900
C41         C  0.47784751  0.00126975  0.00557156    -0.18600
C42         C  0.50242377  0.02519845  0.00464527     0.01900
C43         C  0.52635533  0.02414911  0.00376108     0.01900
C44         C  0.52511177  0.99932232  0.00197800    -0.18600
H45         H  0.54343405  0.99858517  0.00036261     0.03900
H46         H  0.45946033  0.00190990  0.00649946     0.03900
O47         O  0.22065551  0.48569449  0.30410064    -0.74800
O48         O  0.26707198  0.48440572  0.21529981    -0.74800
O49         O  0.26626334  0.48362875  0.30452092    -0.74900
O50         O  0.22119976  0.48587960  0.21513723    -0.74900
O51         O  0.24410955  0.53031418  0.21606325    -0.74900
O52         O  0.29011291  0.52802896  0.30535178    -0.74800
O53         O  0.29007097  0.52885705  0.21623759    -0.74800
O54         O  0.24444288  0.53006943  0.30489222    -0.74900
Ni55       Ni  0.24297962  0.48331289  0.25978248     1.25400
Ni56       Ni  0.26805753  0.53090526  0.26073138     1.25400
C57         C  0.22493963  0.50823392  0.31887908     0.87400
C58         C  0.28571058  0.50659281  0.20035218     0.87300
C59         C  0.28556624  0.50534565  0.31966237     0.87400
C60         C  0.22515994  0.50828257  0.20077460     0.87500
O61         O  0.23692578  0.71531873  0.29740551    -0.74800
O62         O  0.28715195  0.76198560  0.21200101    -0.74800
O63         O  0.28377059  0.76202346  0.30099545    -0.74900
O64         O  0.24052425  0.71539068  0.20825869    -0.74900
O65         O  0.21837777  0.73757917  0.20346041    -0.74900
O66         O  0.26137928  0.78404762  0.29644316    -0.74800
O67         O  0.26511057  0.78429469  0.20736759    -0.74800
O68         O  0.21476751  0.73746414  0.29212136    -0.74900
Ni69       Ni  0.26288448  0.73788159  0.25485156     1.25400
Ni70       Ni  0.23915144  0.76165591  0.24966071     1.25400
C71         C  0.21749878  0.71867624  0.30878752     0.87400
C72         C  0.28437764  0.78081044  0.19556161     0.87300
C73         C  0.27937057  0.78041891  0.31434857     0.87400
C74         C  0.22252032  0.71897014  0.19028625     0.87500
C75         C  0.12975464  0.50490790  0.00746705     0.79900
N76         N  0.14162285  0.50532495  0.04663104    -0.78400
C77         C  0.16621552  0.50768798  0.04727789     0.82300
N78         N  0.17904794  0.51022170  0.00893842    -0.78400
C79         C  0.16641221  0.50934771  0.47009789     0.82400
N80         N  0.14200576  0.50723275  0.47041024    -0.80100
C81         C  0.12450359  0.62662250  0.00003423     0.79900
N82         N  0.13409334  0.63852799  0.46240723    -0.78400
C83         C  0.15768884  0.66178991  0.46136500     0.82300
N84         N  0.17149495  0.67348857  0.99954004    -0.78400
C85         C  0.16108755  0.66115186  0.03824305     0.82400
N86         N  0.13754244  0.63782003  0.03848656    -0.80100
C87         C  0.87831415  0.37422527  0.50359132     0.79900
N88         N  0.86578971  0.36400375  0.04100620    -0.78400
C89         C  0.84197890  0.34105211  0.04118810     0.82300
N90         N  0.83102425  0.32798037  0.50297360    -0.78400
C91         C  0.84310221  0.33884626  0.46432592     0.82400
N92         N  0.86682227  0.36206180  0.46466187    -0.80100
C93         C  0.87554291  0.49516397  0.50444000     0.79900
N94         N  0.86350993  0.49373261  0.46505615    -0.78400
C95         C  0.83935056  0.49220867  0.46366347     0.82300
N96         N  0.82749173  0.49279228  0.50156678    -0.78400
C97         C  0.83946616  0.49410042  0.03892049     0.82400
N98         N  0.86380135  0.49589375  0.03979370    -0.80100
C99         C  0.02723870  0.50014615  0.00046314     0.01900
C100        C  0.02663150  0.52422623  0.00228408     0.01900
C101        C  0.00199530  0.52338723  0.00215676    -0.18600
C102        C  0.97794458  0.49908847  0.00045004     0.01900
C103        C  0.97848018  0.47493458  0.99925764     0.01900
C104        C  0.00315800  0.47579091  0.99991843    -0.18600
H105        H  0.00369420  0.45738287  0.00043351     0.03900
H106        H  0.00153971  0.54184770  0.00318801     0.03900
O107        O  0.50643717  0.27875310  0.20491955    -0.74800
O108        O  0.51150212  0.23431978  0.29376741    -0.74800
O109        O  0.51396350  0.23635251  0.20431678    -0.74900
O110        O  0.50424513  0.27711210  0.29396418    -0.74900
O111        O  0.46023332  0.25004898  0.29068326    -0.74900
O112        O  0.47002448  0.20873128  0.20127901    -0.74800
O113        O  0.46751010  0.20743183  0.29036849    -0.74800
O114        O  0.46251818  0.25122246  0.20091623    -0.74900
Ni115      Ni  0.51058993  0.25758205  0.24942256     1.25400
Ni116      Ni  0.46350224  0.22841567  0.24568769     1.25400
C117        C  0.48367220  0.27195399  0.18760302     0.87400
C118        C  0.49022207  0.21368566  0.30720253     0.87300
C119        C  0.49363094  0.21592302  0.18780300     0.87400
C120        C  0.48074614  0.27029876  0.30735985     0.87500
O121        O  0.78672687  0.51808989  0.29724263    -0.74800
O122        O  0.74118950  0.52217396  0.20990327    -0.74800
O123        O  0.74093454  0.51984133  0.29911998    -0.74900
O124        O  0.78672701  0.52036316  0.20797132    -0.74900
O125        O  0.76353378  0.47597330  0.20511560    -0.74900
O126        O  0.71741883  0.47546674  0.29560427    -0.74800
O127        O  0.71763010  0.47782846  0.20652397    -0.74800
O128        O  0.76309418  0.47378804  0.29436184    -0.74900
Ni129      Ni  0.76473408  0.52169497  0.25370425     1.25400
Ni130      Ni  0.73958080  0.47417805  0.25022978     1.25400
C131        C  0.78224549  0.49530395  0.31066340     0.87400
C132        C  0.72206352  0.50069385  0.19358121     0.87300
C133        C  0.72201648  0.49750754  0.31295270     0.87400
C134        C  0.78239129  0.49828721  0.19112197     0.87500
O135        O  0.48066293  0.71394377  0.19611657    -0.74800
O136        O  0.47032826  0.75577081  0.28343697    -0.74800
O137        O  0.47165500  0.75538948  0.19392325    -0.74900
O138        O  0.47921220  0.71422544  0.28521087    -0.74900
O139        O  0.52295607  0.74259244  0.28712328    -0.74900
O140        O  0.51539718  0.78394615  0.19581376    -0.74800
O141        O  0.51410461  0.78418916  0.28493810    -0.74800
O142        O  0.52437388  0.74240493  0.19766387    -0.74900
Ni143      Ni  0.47391003  0.73385387  0.23959264     1.25400
Ni144      Ni  0.52077140  0.76427138  0.24146689     1.25400
C145        C  0.50421517  0.72142902  0.18204660     0.87400
C146        C  0.49056420  0.77680232  0.29885025     0.87300
C147        C  0.49224266  0.77618009  0.17932953     0.87400
C148        C  0.50231413  0.72182139  0.30171485     0.87500
C149        C  0.38087166  0.50530295  0.50875472     0.79900
N150        N  0.36779300  0.50398461  0.47061460    -0.78400
C151        C  0.34398772  0.50313971  0.47150211     0.82300
N152        N  0.33350719  0.50410749  0.51057714    -0.78400
C153        C  0.34629963  0.50721008  0.04954137     0.82400
N154        N  0.36986897  0.50732635  0.04917914    -0.80100
C155        C  0.50388031  0.62645490  0.48964056     0.79900
N156        N  0.50653512  0.63899624  0.03043060    -0.78400
C157        C  0.50824540  0.66322325  0.03099279     0.82300
N158        N  0.50675385  0.67465484  0.49224105    -0.78400
C159        C  0.50492258  0.66283842  0.45291549     0.82400
N160        N  0.50356615  0.63877358  0.45168513    -0.80100
C161        C  0.49060697  0.37091075  0.49603832     0.79900
N162        N  0.48967884  0.35844163  0.03562034    -0.78400
C163        C  0.48487297  0.33295214  0.03596761     0.82300
N164        N  0.48022122  0.31973434  0.49725793    -0.78400
C165        C  0.48196579  0.33168956  0.45812660     0.82400
N166        N  0.48703389  0.35725141  0.45770118    -0.80100
C167        C  0.62830808  0.50266024  0.50047705     0.79900
N168        N  0.63986786  0.50119582  0.46233478    -0.82600
C169        C  0.66353398  0.50160900  0.46310227     0.82300
N170        N  0.67575422  0.50372000  0.50220633    -0.78400
C171        C  0.66374243  0.50286994  0.04168317     0.82400
N172        N  0.63989773  0.50202766  0.04154845    -0.80100
C173        C  0.47913853  0.50212531  0.49391875     0.01900
C174        C  0.50383487  0.52618509  0.49189538     0.01900
C175        C  0.52755969  0.52519229  0.49136078    -0.18600
C176        C  0.52713162  0.50076580  0.49189915     0.01900
C177        C  0.50242919  0.47664966  0.49248161     0.01900
C178        C  0.47876081  0.47772195  0.49431814    -0.18600
H179        H  0.45987506  0.45934007  0.49706654     0.03900
H180        H  0.54654896  0.54358620  0.49025725     0.03900
C181        C  0.56716074  0.50715872  0.03695268    -0.26700
C182        C  0.55288512  0.50115940  0.49290599    -0.14800
C183        C  0.56386523  0.49608439  0.45521205     0.35900
C184        C  0.58822276  0.49653425  0.45885907    -0.26100
C185        C  0.60231070  0.50230600  0.49908272    -0.15400
C186        C  0.59154336  0.50746122  0.03983410     0.37000
N187        N  0.60625403  0.51506803  0.08059744    -0.89600
H188        H  0.55955584  0.51235198  0.06557177     0.18100
H189        H  0.59620773  0.49246501  0.42956084     0.18100
N190        N  0.55136293  0.49112666  0.41257835    -0.88600
H191        H  0.59557280  0.51831559  0.10515274     0.35400
H192        H  0.62355026  0.53336522  0.07547215     0.40500
H193        H  0.53431402  0.49292036  0.41296671     0.40200
H194        H  0.54531307  0.47145613  0.40391655     0.35100
C195        C  0.48416951  0.40601694  0.45979604    -0.26700
C196        C  0.49499179  0.39855744  0.49485179    -0.14800
C197        C  0.51067543  0.41742517  0.02892255     0.35900
C198        C  0.51239838  0.44244358  0.02894657    -0.26100
C199        C  0.50062270  0.45007983  0.49196931    -0.15400
C200        C  0.48678524  0.43148440  0.45803959     0.37000
N201        N  0.47513378  0.43842513  0.42221566    -0.89600
H202        H  0.47314687  0.39174413  0.43397979     0.18100
H203        H  0.52355380  0.45647889  0.05494853     0.18100
N204        N  0.52511615  0.41178221  0.06140223    -0.88600
H205        H  0.46533150  0.42244468  0.40030822     0.35400
H206        H  0.49063569  0.45381060  0.40464665     0.40500
H207        H  0.51889803  0.41424640  0.09243406     0.40200
H208        H  0.54535778  0.42589543  0.05833168     0.35100
C209        C  0.49413338  0.55798657  0.95947138    -0.26700
C210        C  0.50510227  0.55247158  0.49037012    -0.14800
C211        C  0.51785209  0.57157309  0.52396194     0.35900
C212        C  0.51726891  0.59552710  0.52261155    -0.26100
C213        C  0.50410309  0.60086796  0.48848462    -0.15400
C214        C  0.49397000  0.58198298  0.95684257     0.37000
N215        N  0.48147192  0.58594742  0.91912760    -0.89600
H216        H  0.48527838  0.54363084  0.93293562     0.18100
H217        H  0.52715687  0.61010882  0.54853607     0.18100
N218        N  0.53092954  0.56636147  0.55971596    -0.88600
H219        H  0.49003132  0.60087890  0.40001610     0.35400
H220        H  0.46248903  0.58867885  0.43279218     0.40500
H221        H  0.51300892  0.54876412  0.08392713     0.40200
H222        H  0.53602704  0.58098505  0.09003997     0.35100
C223        C  0.41039568  0.49244621  0.46976213    -0.26700
C224        C  0.40621961  0.50467032  0.50658340    -0.14800
C225        C  0.42642114  0.51693634  0.04213832     0.35900
C226        C  0.44929950  0.51466112  0.03869665    -0.26100
C227        C  0.45362952  0.50220117  0.49804043    -0.15400
C228        C  0.43374574  0.49121922  0.46506818     0.37000
N229        N  0.43708087  0.47954980  0.42572109    -0.89600
H230        H  0.39534640  0.48365555  0.44414249     0.18100
H231        H  0.46420188  0.52291410  0.06460236     0.18100
N232        N  0.42463417  0.53135799  0.07900847    -0.88600
H233        H  0.43860107  0.46290348  0.43405631     0.35400
H234        H  0.45474503  0.49347949  0.41045533     0.40500
H235        H  0.42158277  0.54660282  0.06741982     0.40200
H236        H  0.40859618  0.51839508  0.09853102     0.35100
C237        C  0.48658862  0.67902511  0.34148127    -0.26700
C238        C  0.50479500  0.70652426  0.33871595    -0.14800
C239        C  0.52367696  0.71904966  0.37306009     0.35900
C240        C  0.52348839  0.70417368  0.40929033    -0.26100
C241        C  0.50519476  0.67684478  0.41221534    -0.15400
C242        C  0.48661340  0.66402307  0.37787469     0.37000
N243        N  0.46731147  0.63613381  0.38075357    -0.89600
H244        H  0.47201379  0.66926965  0.31543362     0.18100
H245        H  0.53773474  0.71416436  0.43570812     0.18100
N246        N  0.54260879  0.74699862  0.37318103    -0.88600
H247        H  0.45511541  0.62977205  0.35272409     0.35400
H248        H  0.45489367  0.63356074  0.40742665     0.40500
H249        H  0.53235958  0.75751033  0.37031842     0.40200
H250        H  0.55539041  0.75135172  0.34639648     0.35100
C251        C  0.52880437  0.70325407  0.07874622    -0.26700
C252        C  0.50898798  0.67659899  0.07276096    -0.14800
C253        C  0.48891456  0.66402389  0.10462591     0.35900
C254        C  0.48843730  0.67881526  0.14101869    -0.26100
C255        C  0.50776712  0.70584992  0.14643415    -0.15400
C256        C  0.52877947  0.71791917  0.11561517     0.37000
N257        N  0.54933890  0.74528528  0.12055429    -0.89600
H258        H  0.54424627  0.71275735  0.05415052     0.18100
H259        H  0.47247168  0.66933666  0.16473066     0.18100
N260        N  0.46848425  0.63666327  0.09898909    -0.88600
H261        H  0.56207173  0.75149350  0.09341374     0.35400
H262        H  0.56105442  0.74635212  0.14762654     0.40500
H263        H  0.45738703  0.63549413  0.07095651     0.40200
H264        H  0.45525883  0.63038132  0.12545496     0.35100
C265        C  0.71961008  0.52042390  0.12323719    -0.26700
C266        C  0.70604977  0.50257076  0.15741338    -0.14800
C267        C  0.67795374  0.48664536  0.15535343     0.35900
C268        C  0.66420229  0.48819461  0.11845011    -0.26100
C269        C  0.67803967  0.50481753  0.08301679    -0.15400
C270        C  0.70597256  0.52154009  0.08583131     0.37000
N271        N  0.72040055  0.53937886  0.05045195    -0.89600
H272        H  0.74108483  0.53296981  0.12509447     0.18100
H273        H  0.64274082  0.47545218  0.11656949     0.18100
N274        N  0.66289778  0.46902233  0.19030904    -0.88600
H275        H  0.74083107  0.55004908  0.05750001     0.35400
H276        H  0.71403126  0.55332551  0.04824010     0.40500
H277        H  0.66754827  0.48002425  0.21954789     0.40200
H278        H  0.66842893  0.45450372  0.19357150     0.35100
C279        C  0.68895311  0.48398131  0.42468275    -0.26700
C280        C  0.67605158  0.49897945  0.42248270    -0.14800
C281        C  0.67755784  0.51280135  0.38340153     0.35900
C282        C  0.69267619  0.51189077  0.34791221    -0.26100
C283        C  0.70583606  0.49712486  0.35052551    -0.15400
C284        C  0.70400712  0.48302718  0.38963552     0.37000
N285        N  0.71782711  0.46840027  0.39598068    -0.89600
H286        H  0.68793980  0.47336030  0.45462461     0.18100
H287        H  0.69425771  0.52277710  0.31803660     0.18100
N288        N  0.66487193  0.52864550  0.38052670    -0.88600
H289        H  0.73097447  0.47708197  0.42251377     0.35400
H290        H  0.72970887  0.47000303  0.36923258     0.40500
H291        H  0.64428104  0.51560346  0.38006835     0.40200
H292        H  0.66943241  0.53887956  0.35062740     0.35100
C293        C  0.49514728  0.31377811  0.34398788    -0.26700
C294        C  0.47783722  0.28609315  0.34313519    -0.14800
C295        C  0.46019370  0.27385543  0.37860177     0.35900
C296        C  0.46140739  0.28936934  0.41516742    -0.26100
C297        C  0.47940291  0.31692989  0.41671506    -0.15400
C298        C  0.49609526  0.32935377  0.38025531     0.37000
N299        N  0.51483958  0.35746749  0.38094512    -0.89600
H300        H  0.50862574  0.32319841  0.31670206     0.18100
H301        H  0.44848658  0.27980626  0.44302084     0.18100
N302        N  0.44220996  0.24557933  0.37861987    -0.88600
H303        H  0.52537278  0.36347618  0.35136413     0.35400
H304        H  0.52887202  0.36103006  0.40565738     0.40500
H305        H  0.42782914  0.24138659  0.35425774     0.40200
H306        H  0.43189875  0.23955268  0.40840199     0.35100
C307        C  0.49938221  0.31550486  0.15013591    -0.26700
C308        C  0.48202994  0.28785318  0.15078004    -0.14800
C309        C  0.46438689  0.27554802  0.11497555     0.35900
C310        C  0.46497997  0.29107471  0.07903313    -0.26100
C311        C  0.48285723  0.31865157  0.07769623    -0.15400
C312        C  0.49983718  0.33099303  0.11439806     0.37000
N313        N  0.51839449  0.35897493  0.11588387    -0.89600
H314        H  0.51293235  0.32516530  0.17751167     0.18100
H315        H  0.45182673  0.28140674  0.05122342     0.18100
N316        N  0.44672725  0.24719229  0.11426129    -0.88600
H317        H  0.50761177  0.36898171  0.11519354     0.35400
H318        H  0.53068849  0.36418977  0.08824445     0.40500
H319        H  0.45849785  0.23820210  0.11268428     0.40200
H320        H  0.43491978  0.24137490  0.08578702     0.35100
C321        C  0.83930607  0.51091476  0.39033851    -0.26700
C322        C  0.82606735  0.49085005  0.42160597    -0.14800
C323        C  0.79921178  0.47127176  0.41470597     0.35900
C324        C  0.78578021  0.47264088  0.37718854    -0.26100
C325        C  0.79841042  0.49362857  0.34706380    -0.15400
C326        C  0.82562980  0.51284990  0.35340539     0.37000
N327        N  0.83936376  0.53412081  0.32244522    -0.89600
H328        H  0.85995325  0.52593821  0.39601785     0.18100
H329        H  0.76502516  0.45772486  0.37231539     0.18100
N330        N  0.78560576  0.45032270  0.44627525    -0.88600
H331        H  0.85974071  0.54486210  0.32981830     0.35400
H332        H  0.83237813  0.54746789  0.32669533     0.40500
H333        H  0.79492392  0.43884339  0.44648128     0.40200
H334        H  0.76582783  0.43766608  0.43657945     0.35100
C335        C  0.81301006  0.51039450  0.07801349    -0.26700
C336        C  0.82646491  0.49589142  0.07959667    -0.14800
C337        C  0.82617895  0.48274565  0.11885498     0.35900
C338        C  0.81196696  0.48405401  0.15545674    -0.26100
C339        C  0.79857034  0.49860725  0.15356924    -0.15400
C340        C  0.79930608  0.51211697  0.11463648     0.37000
N341        N  0.78507324  0.52649271  0.11173466    -0.89600
H342        H  0.81322750  0.52052684  0.04792804     0.18100
H343        H  0.81114754  0.47356151  0.18542947     0.18100
N344        N  0.83959591  0.46756905  0.12103308    -0.88600
H345        H  0.78622228  0.53384898  0.07991612     0.35400
H346        H  0.79469827  0.54312119  0.13236250     0.40500
H347        H  0.83004970  0.45165483  0.09892623     0.40200
H348        H  0.83752494  0.45925547  0.15229600     0.35100
C349        C  0.91088689  0.48971119  0.96429237    -0.26700
C350        C  0.90194758  0.49651981  0.50557911    -0.14800
C351        C  0.91863502  0.50493005  0.54347212     0.35900
C352        C  0.94316794  0.50546262  0.54239591    -0.26100
C353        C  0.95147774  0.49792065  0.50453272    -0.15400
C354        C  0.93556482  0.49063320  0.96273493     0.37000
N355        N  0.94392557  0.48274840  0.42733373    -0.89600
H356        H  0.89782167  0.48230110  0.93583608     0.18100
H357        H  0.95590182  0.51166318  0.57133988     0.18100
N358        N  0.91365597  0.51790377  0.07682755    -0.88600
H359        H  0.92888362  0.47656028  0.89914927     0.35400
H360        H  0.96050076  0.49948629  0.91131386     0.40500
H361        H  0.91096759  0.53080400  0.57550530     0.40200
H362        H  0.92504328  0.51782598  0.60781692     0.35100
C363        C  0.92206435  0.40586378  0.46946313    -0.26700
C364        C  0.90395326  0.39985275  0.50415735    -0.14800
C365        C  0.91130345  0.41939569  0.03717101     0.35900
C366        C  0.93622762  0.44285180  0.03601070    -0.26100
C367        C  0.95356943  0.44790114  0.50436082    -0.15400
C368        C  0.94664780  0.42959361  0.46912950     0.37000
N369        N  0.96377857  0.43481021  0.43205191    -0.89600
H370        H  0.91716025  0.39197434  0.44237237     0.18100
H371        H  0.94211942  0.45700414  0.06292298     0.18100
N372        N  0.89355131  0.41484808  0.07328392    -0.88600
H373        H  0.98149332  0.43598740  0.44273122     0.35400
H374        H  0.96821748  0.45308017  0.41836908     0.40500
H375        H  0.87695145  0.41531924  0.06070395     0.40200
H376        H  0.90239404  0.43028344  0.09638986     0.35100
C377        C  0.09267717  0.58422043  0.03767359    -0.26700
C378        C  0.09893587  0.60072732  0.00051527    -0.14800
C379        C  0.07903894  0.59191112  0.46754053     0.35900
C380        C  0.05574086  0.56691721  0.47035556    -0.26100
C381        C  0.05142227  0.55059842  0.00338106    -0.15400
C382        C  0.06910323  0.55953704  0.03985944     0.37000
N383        N  0.06343668  0.54478976  0.08022323    -0.89600
H384        H  0.10616918  0.59053519  0.06564141     0.18100
H385        H  0.04191957  0.55958832  0.44280499     0.18100
N386        N  0.08390453  0.60782314  0.42872484    -0.88600
H387        H  0.07780697  0.53907177  0.08430423     0.35400
H388        H  0.04480041  0.52750869  0.07949578     0.40500
H389        H  0.08308545  0.62478862  0.43786809     0.40200
H390        H  0.06877636  0.59777371  0.40537897     0.35100
C391        C  0.09471249  0.51138127  0.47086800    -0.26700
C392        C  0.10281145  0.50230827  0.00573550    -0.14800
C393        C  0.08430764  0.49119704  0.04058351     0.35900
C394        C  0.05958083  0.49021579  0.03734257    -0.26100
C395        C  0.05279798  0.49995008  0.00017731    -0.15400
C396        C  0.07001739  0.51023595  0.46835205     0.37000
N397        N  0.06283373  0.51757821  0.42749079    -0.89600
H398        H  0.10768685  0.51865878  0.44250437     0.18100
H399        H  0.04561896  0.48223303  0.06438236     0.18100
N400        N  0.09045327  0.48075386  0.07895977    -0.88600
H401        H  0.07597052  0.53787392  0.42253161     0.35400
H402        H  0.04357246  0.51474149  0.42815805     0.40500
H403        H  0.09179017  0.46419692  0.06898452     0.40200
H404        H  0.07490978  0.47381944  0.10171342     0.35100
C405        C  0.20276475  0.68115428  0.08195270    -0.26700
C406        C  0.17565408  0.67336154  0.07938848    -0.14800
C407        C  0.16357487  0.67930330  0.11439994     0.35900
C408        C  0.17916495  0.69358816  0.15100828    -0.26100
C409        C  0.20645369  0.70178698  0.15329202    -0.15400
C410        C  0.21819745  0.69503764  0.11852300     0.37000
N411        N  0.24597809  0.70314388  0.11828804    -0.89600
H412        H  0.21213529  0.67675962  0.05490556     0.18100
H413        H  0.17010891  0.69875335  0.17755162     0.18100
N414        N  0.13586139  0.67170934  0.11190275    -0.88600
H415        H  0.25003111  0.69427455  0.14486998     0.35400
H416        H  0.25705299  0.72382981  0.12183015     0.40500
H417        H  0.13358992  0.68219236  0.08583521     0.40200
H418        H  0.13007382  0.67756449  0.14040652     0.35100
C419        C  0.19037097  0.71451498  0.37387229    -0.26700
C420        C  0.19883221  0.70191503  0.34370662    -0.14800
C421        C  0.19063528  0.67457850  0.34987575     0.35900
C422        C  0.17641235  0.66159618  0.38802436    -0.26100
C423        C  0.16969581  0.67495854  0.41941807    -0.15400
C424        C  0.17620513  0.70150212  0.41158089     0.37000
N425        N  0.16867014  0.71576538  0.44135064    -0.89600
H426        H  0.19579683  0.73513660  0.36920019     0.18100
H427        H  0.17102058  0.64104680  0.39358349     0.18100
N428        N  0.19598303  0.65928570  0.31839357    -0.88600
H429        H  0.17805493  0.71772859  0.47167467     0.35400
H430        H  0.14802369  0.70475541  0.44576214     0.40500
H431        H  0.20346290  0.66971262  0.28913803     0.40200
H432        H  0.17768834  0.64279190  0.30953110     0.35100
C433        C  0.31658120  0.49405933  0.16507601    -0.26700
C434        C  0.30153566  0.50692682  0.16237663    -0.14800
C435        C  0.30211762  0.52044223  0.12328106     0.35900
C436        C  0.31830308  0.52140138  0.08867405    -0.26100
C437        C  0.33318275  0.50834038  0.09069367    -0.15400
C438        C  0.33249746  0.49462993  0.12955098     0.37000
N439        N  0.34693176  0.48048912  0.13228608    -0.89600
H440        H  0.31596436  0.48364099  0.19503648     0.18100
H441        H  0.31850531  0.53189237  0.05902819     0.18100
N442        N  0.28598572  0.53266881  0.11657434    -0.88600
H443        H  0.34269821  0.46993724  0.16183612     0.35400
H444        H  0.36718848  0.49469072  0.13362385     0.40500
H445        H  0.27318435  0.52944396  0.14276401     0.40200
H446        H  0.27353210  0.52330449  0.08949937     0.35100
C447        C  0.28789135  0.48749091  0.39156608    -0.26700
C448        C  0.30169677  0.50383775  0.35588568    -0.14800
C449        C  0.32997771  0.51826929  0.35655838     0.35900
C450        C  0.34350080  0.51710114  0.39420760    -0.26100
C451        C  0.32949989  0.50171472  0.43067956    -0.15400
C452        C  0.30147318  0.48634542  0.42883945     0.37000
N453        N  0.28669543  0.46946248  0.46476677    -0.89600
H454        H  0.26627769  0.47602592  0.39105020     0.18100
H455        H  0.36508429  0.52876401  0.39529388     0.18100
N456        N  0.34560918  0.53394412  0.31994561    -0.88600
H457        H  0.27557518  0.44995922  0.45286811     0.35400
H458        H  0.27336729  0.47536696  0.47591363     0.40500
H459        H  0.33372307  0.53197011  0.29274084     0.40200
H460        H  0.35765582  0.52621522  0.30993586     0.35100
C461        C  0.22161971  0.52803290  0.38825220    -0.26700
C462        C  0.20831809  0.50953794  0.35435189    -0.14800
C463        C  0.18020099  0.49288902  0.35629266     0.35900
C464        C  0.16665042  0.49382341  0.39387494    -0.26100
C465        C  0.18035526  0.51136094  0.42867649    -0.15400
C466        C  0.20794611  0.52923172  0.42523409     0.37000
N467        N  0.22201470  0.54831498  0.45964304    -0.89600
H468        H  0.24302165  0.54115629  0.38650844     0.18100
H469        H  0.14534675  0.48033455  0.39629574     0.18100
N470        N  0.16472574  0.47515962  0.32109078    -0.88600
H471        H  0.24227262  0.55987144  0.45216859     0.35400
H472        H  0.21444903  0.56133166  0.46088100     0.40500
H473        H  0.17625543  0.47798172  0.29321402     0.40200
H474        H  0.15057968  0.48034520  0.31132433     0.35100
C475        C  0.20649665  0.49221764  0.12748806    -0.26700
C476        C  0.20858678  0.50809855  0.16373689    -0.14800
C477        C  0.19481864  0.52259820  0.16318119     0.35900
C478        C  0.18018180  0.52150788  0.12535528    -0.26100
C479        C  0.17895993  0.50625890  0.08856580    -0.15400
C480        C  0.19183402  0.49105279  0.09005293     0.37000
N481        N  0.19000554  0.47447955  0.05337895    -0.89600
H482        H  0.21678526  0.48090490  0.12813403     0.18100
H483        H  0.17021712  0.53311071  0.12433464     0.18100
N484        N  0.19490766  0.53824900  0.20003730    -0.88600
H485        H  0.20084872  0.46482793  0.05957703     0.35400
H486        H  0.17003055  0.45959936  0.05012818     0.40500
H487        H  0.20524502  0.53662017  0.22691408     0.40200
H488        H  0.17516980  0.53029740  0.21037093     0.35100
C489        C  0.56920269  0.05575305  0.46746293    -0.26700
C490        C  0.55289551  0.04880395  0.00499442    -0.14800
C491        C  0.56223152  0.06557664  0.04250620     0.35900
C492        C  0.58646527  0.08964235  0.04039593    -0.26100
C493        C  0.60199611  0.09756176  0.00195636    -0.15400
C494        C  0.59318008  0.08023883  0.46490246     0.37000
N495        N  0.60913228  0.08676646  0.42580453    -0.89600
H496        H  0.56258209  0.04229233  0.43949078     0.18100
H497        H  0.59292720  0.10243913  0.06918594     0.18100
N498        N  0.54801450  0.05876375  0.08349364    -0.88600
H499        H  0.59999954  0.07163921  0.40223773     0.35400
H500        H  0.62708149  0.08769437  0.43442207     0.40500
H501        H  0.53105576  0.03989610  0.08252770     0.40200
H502        H  0.54167564  0.07251490  0.08913617     0.35100
C503        C  0.51737307  0.21551353  0.12022380    -0.26700
C504        C  0.49753371  0.20115738  0.15148327    -0.14800
C505        C  0.48125277  0.17331139  0.14650004     0.35900
C506        C  0.48433804  0.16065407  0.10919047    -0.26100
C507        C  0.50309901  0.17533646  0.07662660    -0.15400
C508        C  0.52012889  0.20304425  0.08281440     0.37000
N509        N  0.54061325  0.21901780  0.05199185    -0.89600
H510        H  0.53022098  0.23684002  0.12398032     0.18100
H511        H  0.47143362  0.13939524  0.10473949     0.18100
N512        N  0.46166537  0.15803468  0.17922082    -0.88600
H513        H  0.53181709  0.21918047  0.02200119     0.35400
H514        H  0.55266712  0.21054309  0.04728145     0.40500
H515        H  0.47185315  0.15946993  0.20853380     0.40200
H516        H  0.45129754  0.13787976  0.17053676     0.35100
C517        C  0.51587362  0.19732714  0.35094094    -0.26700
C518        C  0.49181353  0.19719067  0.34331561    -0.14800
C519        C  0.46991574  0.18207205  0.37145640     0.35900
C520        C  0.47289844  0.16829633  0.40699012    -0.26100
C521        C  0.49712521  0.16917204  0.41528831    -0.15400
C522        C  0.51880412  0.18344444  0.38641163     0.37000
N523        N  0.54432369  0.18535774  0.39300130    -0.89600
H524        H  0.53275810  0.20867087  0.32953967     0.18100
H525        H  0.45643206  0.15751132  0.42944554     0.18100
N526        N  0.44503800  0.18157003  0.36514666    -0.88600
H527        H  0.54782957  0.17644893  0.36586821     0.35400
H528        H  0.54447361  0.17478100  0.42065796     0.40500
H529        H  0.44845183  0.20073875  0.37155667     0.40200
H530        H  0.43090400  0.16904391  0.38805791     0.35100
C531        C  0.51479248  0.06780181  0.46761743    -0.26700
C532        C  0.50265673  0.05103053  0.00341482    -0.14800
C533        C  0.49134201  0.05859495  0.03748052     0.35900
C534        C  0.49195950  0.08311934  0.03536015    -0.26100
C535        C  0.50354569  0.10037799  0.99943972    -0.15400
C536        C  0.51516476  0.09218334  0.46561186     0.37000
N537        N  0.52867115  0.11005310  0.43005820    -0.89600
H538        H  0.52402636  0.06257789  0.44145465     0.18100
H539        H  0.48307802  0.08853149  0.06184380     0.18100
N540        N  0.47959540  0.04158829  0.07468319    -0.88600
H541        H  0.51995444  0.10017653  0.40054000     0.35400
H542        H  0.54855145  0.11451659  0.43036721     0.40500
H543        H  0.45972411  0.03699010  0.07675015     0.40200
H544        H  0.48954416  0.05223085  0.10302968     0.35100
C545        C  0.29767557  0.81160558  0.42780384    -0.26700
C546        C  0.32546946  0.82798869  0.42444376    -0.14800
C547        C  0.33788757  0.82950288  0.38371655     0.35900
C548        C  0.32229040  0.81374471  0.34808570    -0.26100
C549        C  0.29462437  0.79707493  0.35208025    -0.15400
C550        C  0.28214103  0.79602196  0.39253950     0.37000
N551        N  0.25401574  0.77887557  0.39976702    -0.89600
H552        H  0.28781601  0.81033405  0.45871449     0.18100
H553        H  0.33172946  0.81444181  0.31698397     0.18100
N554        N  0.36623214  0.84610865  0.37898343    -0.88600
H555        H  0.25180253  0.76533128  0.42438388     0.35400
H556        H  0.24427049  0.76748843  0.37209119     0.40500
H557        H  0.37041997  0.86583506  0.37971713     0.40200
H558        H  0.37229435  0.84332512  0.34801123     0.35100
C559        C  0.32578967  0.83870473  0.11819930    -0.26700
C560        C  0.33088391  0.82536993  0.08442616    -0.14800
C561        C  0.32310090  0.79824723  0.08993449     0.35900
C562        C  0.30943197  0.78484057  0.12781945    -0.26100
C563        C  0.30272726  0.79761246  0.16043456    -0.15400
C564        C  0.31201771  0.82529539  0.15639746     0.37000
N565        N  0.30817967  0.84049952  0.19012547    -0.89600
H566        H  0.33207524  0.85961479  0.11449900     0.18100
H567        H  0.30296271  0.76385415  0.13080606     0.18100
N568        N  0.32891541  0.78378993  0.05776093    -0.88600
H569        H  0.32700935  0.85607523  0.19921148     0.35400
H570        H  0.30047635  0.82941551  0.21875915     0.40500
H571        H  0.34943255  0.79411093  0.05182739     0.40200
H572        H  0.31881007  0.78261761  0.02855219     0.35100
C573        C  0.41723015  0.91110531  0.04259314    -0.26700
C574        C  0.40204054  0.90239976  0.50356244    -0.14800
C575        C  0.41059191  0.91948794  0.46660154     0.35900
C576        C  0.43489714  0.94357931  0.46816862    -0.26100
C577        C  0.45027326  0.95173681  0.00659997    -0.15400
C578        C  0.44140077  0.93533477  0.04437128     0.37000
N579        N  0.45602823  0.94270051  0.08522778    -0.89600
H580        H  0.41090731  0.89877989  0.07177893     0.18100
H581        H  0.44141974  0.95626401  0.43937704     0.18100
N582        N  0.39467554  0.91279244  0.42742323    -0.88600
H583        H  0.46227166  0.92891661  0.09134466     0.35400
H584        H  0.47312531  0.96143202  0.08359068     0.40500
H585        H  0.40612729  0.91241757  0.40119388     0.40200
H586        H  0.39021852  0.92789683  0.42142717     0.35100
C587        C  0.47181708  0.79236972  0.07007666    -0.26700
C588        C  0.48790916  0.82020285  0.06869981    -0.14800
C589        C  0.50476477  0.83371321  0.10481930     0.35900
C590        C  0.50532145  0.81896716  0.14120783    -0.26100
C591        C  0.48941613  0.79108831  0.14219840    -0.15400
C592        C  0.47230475  0.77766635  0.10631441     0.37000
N593        N  0.45655940  0.74907515  0.10557925    -0.89600
H594        H  0.45889767  0.78192248  0.04238772     0.18100
H595        H  0.51855418  0.82922803  0.16866553     0.18100
N596        N  0.52192421  0.86212611  0.10384779    -0.88600
H597        H  0.44715847  0.74232042  0.07501217     0.35400
H598        H  0.44126038  0.74348936  0.12846420     0.40500
H599        H  0.53578441  0.86649008  0.07869924     0.40200
H600        H  0.53286032  0.86891866  0.13313476     0.35100
C601        C  0.50187264  0.83277637  0.37744668    -0.26700
C602        C  0.48248067  0.81868699  0.40943943    -0.14800
C603        C  0.46410041  0.79139965  0.40271599     0.35900
C604        C  0.46635409  0.77846722  0.36517611    -0.26100
C605        C  0.48684141  0.79213605  0.33453069    -0.15400
C606        C  0.50438470  0.81977523  0.34016799     0.37000
N607        N  0.52490206  0.83446643  0.30841493    -0.89600
H608        H  0.51589209  0.85375458  0.38256488     0.18100
H609        H  0.45272356  0.75733243  0.36083989     0.18100
N610        N  0.44349969  0.77684826  0.43442559    -0.88600
H611        H  0.53625808  0.85447853  0.31770290     0.35400
H612        H  0.51551297  0.83404673  0.27871083     0.40500
H613        H  0.43176388  0.75693690  0.42480827     0.40200
H614        H  0.43094997  0.78498122  0.43469654     0.35100
C615        C  0.48862333  0.93308077  0.46110095    -0.26700
C616        C  0.49988438  0.94956111  0.99800889    -0.14800
C617        C  0.51031586  0.94046847  0.03125915     0.35900
C618        C  0.50785734  0.91516715  0.02761409    -0.26100
C619        C  0.49516796  0.89857624  0.99102067    -0.15400
C620        C  0.48524366  0.90741994  0.45794574     0.37000
N621        N  0.47159989  0.89121665  0.42046067    -0.89600
H622        H  0.48113311  0.94024300  0.43485243     0.18100
H623        H  0.51581888  0.90845481  0.05380070     0.18100
N624        N  0.52286509  0.95663810  0.06928752    -0.88600
H625        H  0.48204482  0.90124178  0.39222434     0.35400
H626        H  0.45262713  0.88919336  0.41881154     0.40500
H627        H  0.54233187  0.95997879  0.07120386     0.40200
H628        H  0.51260704  0.94589400  0.09716388     0.35100
C629        C  0.80071871  0.32103181  0.08458525    -0.26700
C630        C  0.82785652  0.32902995  0.08243674    -0.14800
C631        C  0.84015047  0.32344566  0.11773910     0.35900
C632        C  0.82460318  0.30895013  0.15399454    -0.26100
C633        C  0.79729190  0.30060006  0.15576015    -0.15400
C634        C  0.78535517  0.30725561  0.12110134     0.37000
N635        N  0.75738659  0.29881956  0.12192107    -0.89600
H636        H  0.79140829  0.32543329  0.05733525     0.18100
H637        H  0.83370849  0.30390371  0.18072448     0.18100
N638        N  0.86802756  0.33169258  0.11597612    -0.88600
H639        H  0.75135557  0.30316784  0.09208244     0.35400
H640        H  0.75466700  0.31023564  0.14579032     0.40500
H641        H  0.87069641  0.32140748  0.09001777     0.40200
H642        H  0.87395710  0.32609611  0.14467715     0.35100
C643        C  0.81201040  0.32311217  0.34968133    -0.26700
C644        C  0.79799311  0.29516198  0.35056936    -0.14800
C645        C  0.79982996  0.28183409  0.38837495     0.35900
C646        C  0.81611308  0.29685719  0.42348542    -0.26100
C647        C  0.82985566  0.32480228  0.42303130    -0.15400
C648        C  0.82786688  0.33804634  0.38540707     0.37000
N649        N  0.84071694  0.36647527  0.38318335    -0.89600
H650        H  0.81046748  0.33342418  0.32106975     0.18100
H651        H  0.81722835  0.28644524  0.45232308     0.18100
N652        N  0.78474170  0.25333581  0.39349913    -0.88600
H653        H  0.86131353  0.37428777  0.38544669     0.35400
H654        H  0.83445109  0.37334652  0.40987123     0.40500
H655        H  0.77149553  0.24392897  0.36754293     0.40200
H656        H  0.77274545  0.24929507  0.42132453     0.35100
C657        C  0.68729595  0.21425900  0.37022376    -0.26700
C658        C  0.69997666  0.20393600  0.34399504    -0.14800
C659        C  0.69562974  0.17812982  0.35288288     0.35900
C660        C  0.68001310  0.16403660  0.38931525    -0.26100
C661        C  0.66872399  0.17519479  0.41674287    -0.15400
C662        C  0.67173287  0.20027850  0.40625233     0.37000
N663        N  0.65903702  0.21206114  0.43082406    -0.89600
H664        H  0.68992546  0.23376740  0.36342134     0.18100
H665        H  0.67752824  0.14473075  0.39742766     0.18100
N666        N  0.70726587  0.16645459  0.32544681    -0.88600
H667        H  0.67396710  0.22914057  0.44643298     0.35400
H668        H  0.64641835  0.19937425  0.45511982     0.40500
H669        H  0.69856182  0.16355438  0.29421481     0.40200
H670        H  0.70245052  0.14761219  0.33702711     0.35100
C671        C  0.67621039  0.16527482  0.11357365    -0.26700
C672        C  0.67122044  0.17823976  0.07899407    -0.14800
C673        C  0.67958892  0.20566014  0.08347472     0.35900
C674        C  0.69340334  0.21953169  0.12125330    -0.26100
C675        C  0.69996336  0.20700469  0.15438620    -0.15400
C676        C  0.69071807  0.17943595  0.15113113     0.37000
N677        N  0.69620759  0.16599566  0.18582621    -0.89600
H678        H  0.66965325  0.14426382  0.11053750     0.18100
H679        H  0.70023403  0.24063851  0.12365865     0.18100
N680        N  0.67443544  0.22006379  0.05031647    -0.88600
H681        H  0.68816981  0.14582276  0.17823253     0.35400
H682        H  0.68635412  0.16690099  0.21398694     0.40500
H683        H  0.65404491  0.20985673  0.04296040     0.40200
H684        H  0.68522205  0.22121598  0.02216714     0.35100
O685        O  0.78359414  0.26399453  0.70616890    -0.74800
O686        O  0.73598671  0.21611278  0.79312796    -0.74800
O687        O  0.73603863  0.21794352  0.70402853    -0.74900
O688        O  0.78340296  0.26184667  0.79541288    -0.74900
O689        O  0.76244934  0.28532537  0.79785230    -0.74900
O690        O  0.71514488  0.24144556  0.70608812    -0.74800
O691        O  0.71509808  0.23956210  0.79527499    -0.74800
O692        O  0.76229842  0.28710705  0.70870225    -0.74900
Ni693      Ni  0.76055065  0.23917012  0.74955439     1.25400
Ni694      Ni  0.73801206  0.26419048  0.75208411     1.25400
C695        C  0.78034133  0.28309063  0.69251390     0.87400
C696        C  0.71779699  0.22013703  0.80888649     0.87300
C697        C  0.71786040  0.22253194  0.68984193     0.87400
C698        C  0.78029039  0.28033674  0.81235743     0.87500
C699        C  0.49026279  0.87001118  0.49129322     0.79900
N700        N  0.48880776  0.85839532  0.95072028    -0.78400
C701        C  0.48491485  0.83322415  0.95018281     0.82300
N702        N  0.48190812  0.81954423  0.48996930    -0.78400
C703        C  0.48483864  0.83200062  0.52914865     0.82400
N704        N  0.48899451  0.85725671  0.52963239    -0.80100
C705        C  0.37614786  0.87630087  0.00397673     0.79900
N706        N  0.36628929  0.86339748  0.54229986    -0.78400
C707        C  0.34347905  0.83937920  0.54262340     0.82300
N708        N  0.33016779  0.82854703  0.00435057    -0.78400
C709        C  0.34031012  0.84090677  0.96555665     0.82400
N710        N  0.36336893  0.86472198  0.96549808    -0.80100
C711        C  0.50206112  0.12439170  0.49767464     0.79900
N712        N  0.50242816  0.13690688  0.95895493    -0.78400
C713        C  0.50184443  0.16003998  0.95799561     0.82300
N714        N  0.49947307  0.16987098  0.49534037    -0.78400
C715        C  0.50074912  0.15959906  0.53470417     0.82400
N716        N  0.50160366  0.13658930  0.53583347    -0.80100
C717        C  0.62557124  0.12519090  0.49939462     0.79900
N718        N  0.63701730  0.13873317  0.53742950    -0.78400
C719        C  0.65827961  0.16389197  0.53622248     0.82300
N720        N  0.66824084  0.17533146  0.49680825    -0.78400
C721        C  0.65859849  0.16126742  0.96053867     0.82400
N722        N  0.63731216  0.13622976  0.96164362    -0.80100
C723        C  0.50136371  0.97509512  0.50205624     0.01900
C724        C  0.47741252  0.97596620  0.50413854     0.01900
C725        C  0.47836855  0.00060099  0.50444738    -0.18600
C726        C  0.50281023  0.02459102  0.50403724     0.01900
C727        C  0.52687400  0.02379164  0.50393923     0.01900
C728        C  0.52588651  0.99906216  0.50240442    -0.18600
H729        H  0.54430184  0.99848466  0.50124886     0.03900
H730        H  0.45988609  0.00107548  0.50482787     0.03900
O731        O  0.22187480  0.48569587  0.80428848    -0.74800
O732        O  0.26769087  0.48402135  0.71472243    -0.74800
O733        O  0.26794818  0.48452236  0.80395193    -0.74900
O734        O  0.22138014  0.48462296  0.71516709    -0.74900
O735        O  0.24369408  0.52907381  0.71477559    -0.74900
O736        O  0.29117847  0.52893525  0.80328582    -0.74800
O737        O  0.29009060  0.52847327  0.71421050    -0.74800
O738        O  0.24512966  0.53010473  0.80368135    -0.74900
Ni739      Ni  0.24391678  0.48311766  0.75960911     1.25400
Ni740      Ni  0.26836219  0.53072753  0.75897882     1.25400
C741        C  0.22606370  0.50829450  0.81861930     0.87400
C742        C  0.28596210  0.50615278  0.69897624     0.87300
C743        C  0.28712837  0.50658149  0.81836441     0.87400
C744        C  0.22486398  0.50673772  0.70022934     0.87500
O745        O  0.23615829  0.71649311  0.79692784    -0.74800
O746        O  0.28723754  0.76226688  0.71206551    -0.74800
O747        O  0.28330446  0.76267187  0.80096622    -0.74900
O748        O  0.24017307  0.71620269  0.70790376    -0.74900
O749        O  0.21851503  0.73887746  0.70258425    -0.74900
O750        O  0.26176649  0.78547761  0.79518024    -0.74800
O751        O  0.26579634  0.78513848  0.70629596    -0.74800
O752        O  0.21470350  0.73933082  0.79129496    -0.74900
Ni753      Ni  0.26248189  0.73859137  0.75468501     1.25400
Ni754      Ni  0.23945423  0.76303765  0.74858338     1.25400
C755        C  0.21702887  0.72034186  0.80815729     0.87400
C756        C  0.28489875  0.78122266  0.69515185     0.87300
C757        C  0.27925739  0.78138898  0.81386515     0.87400
C758        C  0.22237853  0.72003874  0.68973753     0.87500
C759        C  0.12940947  0.50522158  0.50921034     0.79900
N760        N  0.14150129  0.50502351  0.54773623    -0.78400
C761        C  0.16565572  0.50644293  0.54735631     0.82300
N762        N  0.17796627  0.50882122  0.50852133    -0.78400
C763        C  0.16771381  0.51013171  0.96994813     0.82400
N764        N  0.14294816  0.50717060  0.96923687    -0.80100
C765        C  0.12304044  0.62693240  0.50161860     0.79900
N766        N  0.13536717  0.63917545  0.96137272    -0.78400
C767        C  0.15859526  0.66280026  0.96111763     0.82300
N768        N  0.17063838  0.67304404  0.49948264    -0.78400
C769        C  0.16003489  0.66170388  0.53869066     0.82400
N770        N  0.13619732  0.63872442  0.53970849    -0.80100
C771        C  0.87782458  0.37531545  0.00223116     0.79900
N772        N  0.86599873  0.36274797  0.54208958    -0.78400
C773        C  0.84229977  0.33969041  0.54180677     0.82300
N774        N  0.83032990  0.32928183  0.00259362    -0.78400
C775        C  0.84213408  0.33991494  0.96366457     0.82400
N776        N  0.86595627  0.36302292  0.96354717    -0.80100
C777        C  0.87618277  0.49613290  0.00155409     0.79900
N778        N  0.86377128  0.49435349  0.96243049    -0.78400
C779        C  0.83927869  0.49206796  0.96147335     0.82300
N780        N  0.82741243  0.49217063  0.99968860    -0.78400
C781        C  0.83922672  0.49439400  0.54093681     0.82400
N782        N  0.86313228  0.49534657  0.54233388    -0.80100
C783        C  0.02700774  0.50063333  0.50575870     0.01900
C784        C  0.02573885  0.52434063  0.50742177     0.01900
C785        C  0.00083416  0.52282400  0.50722856    -0.18600
C786        C  0.97719398  0.49819204  0.50536979     0.01900
C787        C  0.97834522  0.47437708  0.50423971     0.01900
C788        C  0.00332110  0.47591984  0.50521645    -0.18600
H789        H  0.00441652  0.45781142  0.50580961     0.03900
H790        H  0.99983958  0.54100330  0.50811101     0.03900
O791        O  0.50679741  0.27848024  0.70309176    -0.74800
O792        O  0.51227428  0.23453115  0.79229910    -0.74800
O793        O  0.51351493  0.23555248  0.70270525    -0.74900
O794        O  0.50562298  0.27770406  0.79232883    -0.74900
O795        O  0.46154448  0.25099720  0.79044444    -0.74900
O796        O  0.46947565  0.20841963  0.70117496    -0.74800
O797        O  0.46817182  0.20802921  0.79050900    -0.74800
O798        O  0.46277338  0.25147020  0.70064820    -0.74900
Ni799      Ni  0.51110990  0.25749507  0.74770895     1.25400
Ni800      Ni  0.46392556  0.22879593  0.74559902     1.25400
C801        C  0.48391224  0.27195136  0.68657350     0.87400
C802        C  0.49103479  0.21426548  0.80671667     0.87300
C803        C  0.49281759  0.21513752  0.68692927     0.87400
C804        C  0.48233627  0.27120937  0.80651755     0.87500
O805        O  0.78630293  0.51871079  0.79704351    -0.74800
O806        O  0.74097694  0.52414023  0.71061710    -0.74800
O807        O  0.74068444  0.52106557  0.79978368    -0.74900
O808        O  0.78620670  0.52173578  0.70807170    -0.74900
O809        O  0.76249373  0.47739363  0.70413767    -0.74900
O810        O  0.71691215  0.47670422  0.79546560    -0.74800
O811        O  0.71693527  0.47984325  0.70648316    -0.74800
O812        O  0.76230047  0.47444482  0.79302119    -0.74900
Ni813      Ni  0.76438510  0.52300012  0.75408077     1.25400
Ni814      Ni  0.73878849  0.47552178  0.74957928     1.25400
C815        C  0.78172453  0.49570765  0.80946350     0.87400
C816        C  0.72168721  0.50289022  0.69396882     0.87300
C817        C  0.72160644  0.49868778  0.81312078     0.87400
C818        C  0.78165691  0.49969737  0.69079168     0.87500
O819        O  0.47917913  0.71213694  0.69704119    -0.74800
O820        O  0.46909689  0.75372876  0.78528223    -0.74800
O821        O  0.46917276  0.75302439  0.69567831    -0.74900
O822        O  0.47896290  0.71269184  0.78623766    -0.74900
O823        O  0.52255263  0.74184776  0.78682909    -0.74900
O824        O  0.51279594  0.78213719  0.69610368    -0.74800
O825        O  0.51273201  0.78288839  0.78498534    -0.74800
O826        O  0.52276842  0.74126559  0.69737530    -0.74900
Ni827      Ni  0.47253425  0.73187578  0.74106227     1.25400
Ni828      Ni  0.51925980  0.76301549  0.74136753     1.25400
C829        C  0.50266661  0.72009532  0.68219658     0.87400
C830        C  0.48928650  0.77520703  0.79959183     0.87300
C831        C  0.48935771  0.77401772  0.68057017     0.87400
C832        C  0.50236953  0.72083230  0.80190659     0.87500
C833        C  0.38144549  0.50718390  0.01016384     0.79900
N834        N  0.36901089  0.50665067  0.97166899    -0.78400
C835        C  0.34535040  0.50613925  0.97198582     0.82300
N836        N  0.33433379  0.50656069  0.01083705    -0.78400
C837        C  0.34614372  0.50556567  0.54891477     0.82400
N838        N  0.36984546  0.50597962  0.54803763    -0.80100
C839        C  0.50547027  0.62678539  0.99148047     0.79900
N840        N  0.50534468  0.63847186  0.52901525    -0.78400
C841        C  0.50669212  0.66254965  0.53035768     0.82300
N842        N  0.50888335  0.67527418  0.99250797    -0.78400
C843        C  0.50734299  0.66324042  0.95345028     0.82400
N844        N  0.50575387  0.63903906  0.95307062    -0.80100
C845        C  0.49146565  0.37099275  0.99679357     0.79900
N846        N  0.48914939  0.35865382  0.53510048    -0.78400
C847        C  0.48394057  0.33300407  0.53582206     0.82300
N848        N  0.48183372  0.32011996  0.99711807    -0.78400
C849        C  0.48385088  0.33237169  0.95815743     0.82400
N850        N  0.48853215  0.35780777  0.95814166    -0.80100
C851        C  0.62723592  0.50058943  0.00286352     0.79900
N852        N  0.63854149  0.49929746  0.96427034    -0.82600
C853        C  0.66217636  0.49961551  0.96430729     0.82300
N854        N  0.67455785  0.50151434  0.00313610    -0.78400
C855        C  0.66469455  0.50534056  0.54038699     0.82400
N856        N  0.64079835  0.50440625  0.53948342    -0.80100
C857        C  0.47883534  0.50188420  0.99908968     0.01900
C858        C  0.50370030  0.52576085  0.99795040     0.01900
C859        C  0.52728805  0.52454542  0.99791088    -0.18600
C860        C  0.52661106  0.50000891  0.99768747     0.01900
C861        C  0.50173685  0.47600626  0.99764827     0.01900
C862        C  0.47817034  0.47734120  0.99930441    -0.18600
H863        H  0.45913499  0.45907464  0.00141815     0.03900
H864        H  0.54636250  0.54286268  0.99725932     0.03900
C865        C  0.56674735  0.50704868  0.53296426    -0.26700
C866        C  0.55230226  0.50018540  0.99780134    -0.14800
C867        C  0.56211684  0.49353921  0.96023331     0.35900
C868        C  0.58634300  0.49367047  0.96307821    -0.26100
C869        C  0.60139858  0.50053850  0.00235415    -0.15400
C870        C  0.59130903  0.50779340  0.53664710     0.37000
N871        N  0.60501653  0.51438379  0.57834168    -0.89600
H872        H  0.55826945  0.51115236  0.56162770     0.18100
H873        H  0.59343894  0.48841905  0.93391875     0.18100
N874        N  0.54854975  0.48727485  0.91843218    -0.88600
H875        H  0.59351156  0.51649701  0.60274227     0.35400
H876        H  0.62213023  0.53306220  0.57506654     0.40500
H877        H  0.53183184  0.48960530  0.91903316     0.40200
H878        H  0.54186443  0.46721577  0.91168560     0.35100
C879        C  0.48290536  0.40537729  0.96345061    -0.26700
C880        C  0.49533561  0.39836939  0.99645404    -0.14800
C881        C  0.50933979  0.41750607  0.52811777     0.35900
C882        C  0.51179254  0.44285537  0.52659042    -0.26100
C883        C  0.49976020  0.44935234  0.99628993    -0.15400
C884        C  0.48496575  0.43062236  0.96297563     0.37000
N885        N  0.47191699  0.43722675  0.92897934    -0.89600
H886        H  0.47113966  0.39093462  0.93828191     0.18100
H887        H  0.52218871  0.45684377  0.55304982     0.18100
N888        N  0.52191892  0.41137788  0.56320094    -0.88600
H889        H  0.46160884  0.42119041  0.90735306     0.35400
H890        H  0.48666010  0.45274771  0.91049115     0.40500
H891        H  0.51437246  0.41383567  0.59294921     0.40200
H892        H  0.54234611  0.42518200  0.56247238     0.35100
C893        C  0.49222035  0.55781511  0.45600284    -0.26700
C894        C  0.50528110  0.55211786  0.99577214    -0.14800
C895        C  0.51676853  0.57082751  0.03019483     0.35900
C896        C  0.51659496  0.59496557  0.02774704    -0.26100
C897        C  0.50525358  0.60094185  0.99149637    -0.15400
C898        C  0.49145467  0.58155078  0.45469943     0.37000
N899        N  0.47686610  0.58485359  0.41945309    -0.89600
H900        H  0.48234491  0.54319210  0.43012484     0.18100
H901        H  0.52549051  0.60923670  0.05437852     0.18100
N902        N  0.52830233  0.56511296  0.06766916    -0.88600
H903        H  0.49579898  0.60208064  0.90115141     0.35400
H904        H  0.46661341  0.58984816  0.92977091     0.40500
H905        H  0.51635855  0.55013012  0.57725774     0.40200
H906        H  0.53942964  0.58245447  0.58164069     0.35100
C907        C  0.41108381  0.49408113  0.97186339    -0.26700
C908        C  0.40658230  0.50606187  0.00871495    -0.14800
C909        C  0.42658108  0.51632105  0.53906794     0.35900
C910        C  0.44976890  0.51467691  0.53462436    -0.26100
C911        C  0.45347089  0.50238691  0.00216255    -0.15400
C912        C  0.43419707  0.49227625  0.96815317     0.37000
N913        N  0.43792749  0.48087079  0.92883076    -0.89600
H914        H  0.39647140  0.48591510  0.94550421     0.18100
H915        H  0.46512512  0.52354022  0.55976175     0.18100
N916        N  0.42494297  0.53082175  0.57596434    -0.88600
H917        H  0.43893662  0.46393588  0.93709921     0.35400
H918        H  0.45598166  0.49473065  0.91450441     0.40500
H919        H  0.42134296  0.54572558  0.56442376     0.40200
H920        H  0.40927828  0.51779761  0.59610036     0.35100
C921        C  0.48966261  0.67810173  0.84005210    -0.26700
C922        C  0.50580470  0.70597798  0.83864340    -0.14800
C923        C  0.52349684  0.71924658  0.87409783     0.35900
C924        C  0.52403035  0.70468323  0.91027319    -0.26100
C925        C  0.50756740  0.67693791  0.91219201    -0.15400
C926        C  0.49042008  0.66339620  0.87638641     0.37000
N927        N  0.47315077  0.63501598  0.87768574    -0.89600
H928        H  0.47605769  0.66780895  0.81301799     0.18100
H929        H  0.53726321  0.71528452  0.93757506     0.18100
N930        N  0.54028976  0.74760460  0.87544937    -0.88600
H931        H  0.46196751  0.62816495  0.84862698     0.35400
H932        H  0.45953283  0.63080124  0.90316035     0.40500
H933        H  0.52841954  0.75639771  0.87194501     0.40200
H934        H  0.55379235  0.75347114  0.84943560     0.35100
C935        C  0.52545514  0.70345419  0.57573951    -0.26700
C936        C  0.50789813  0.67594280  0.57242819    -0.14800
C937        C  0.49008984  0.66252092  0.60711812     0.35900
C938        C  0.48936631  0.67723579  0.64348731    -0.26100
C939        C  0.50635577  0.70497302  0.64612527    -0.15400
C940        C  0.52520141  0.71808804  0.61239504     0.37000
N941        N  0.54302837  0.74639626  0.61411611    -0.89600
H942        H  0.53918900  0.71368062  0.54907264     0.18100
H943        H  0.47506679  0.66709590  0.66947507     0.18100
N944        N  0.47208448  0.63428484  0.60449512    -0.88600
H945        H  0.55395698  0.75311248  0.58500465     0.35400
H946        H  0.55697240  0.75012857  0.63906708     0.40500
H947        H  0.45896081  0.63075300  0.57826560     0.40200
H948        H  0.46042636  0.62748778  0.63286256     0.35100
C949        C  0.71985177  0.52300418  0.62360040    -0.26700
C950        C  0.70596078  0.50520092  0.65768868    -0.14800
C951        C  0.67785951  0.48943984  0.65507720     0.35900
C952        C  0.66445267  0.49102464  0.61770047    -0.26100
C953        C  0.67863440  0.50746463  0.58227272    -0.15400
C954        C  0.70654201  0.52415128  0.58573280     0.37000
N955        N  0.72128973  0.54192889  0.55048360    -0.89600
H956        H  0.74135077  0.53534451  0.62576406     0.18100
H957        H  0.64299664  0.47834923  0.61539100     0.18100
N958        N  0.66246364  0.47183933  0.68983118    -0.88600
H959        H  0.74164784  0.55260008  0.55802973     0.35400
H960        H  0.71495060  0.55588496  0.54775260     0.40500
H961        H  0.66697104  0.48282789  0.71906751     0.40200
H962        H  0.66782758  0.45721555  0.69339482     0.35100
C963        C  0.69108212  0.48597703  0.92638523    -0.26700
C964        C  0.67488686  0.49759782  0.92330736    -0.14800
C965        C  0.67340784  0.50886524  0.88288460     0.35900
C966        C  0.68905437  0.50914458  0.84721317    -0.26100
C967        C  0.70557765  0.49795884  0.85101447    -0.15400
C968        C  0.70661192  0.48624053  0.89121654     0.37000
N969        N  0.72364629  0.47508936  0.89824417    -0.89600
H970        H  0.69228869  0.47707502  0.95704333     0.18100
H971        H  0.68831672  0.51802818  0.81624962     0.18100
N972        N  0.65694328  0.52080665  0.87853381    -0.88600
H973        H  0.73716797  0.48609071  0.92330525     0.35400
H974        H  0.73513199  0.47707714  0.87071976     0.40500
H975        H  0.63708007  0.50546037  0.87957635     0.40200
H976        H  0.65952793  0.52964083  0.84760768     0.35100
C977        C  0.49772871  0.31475074  0.84416936    -0.26700
C978        C  0.47987534  0.28716244  0.84263393    -0.14800
C979        C  0.46167946  0.27506575  0.87752468     0.35900
C980        C  0.46305094  0.29045802  0.91433922    -0.26100
C981        C  0.48149448  0.31786352  0.91653780    -0.15400
C982        C  0.49856715  0.33029080  0.88048778     0.37000
N983        N  0.51742201  0.35836895  0.88154603    -0.89600
H984        H  0.51152758  0.32413612  0.81725983     0.18100
H985        H  0.44973651  0.28093466  0.94177807     0.18100
N986        N  0.44275393  0.24701469  0.87660884    -0.88600
H987        H  0.52823412  0.36440112  0.85222914     0.35400
H988        H  0.53118804  0.36178868  0.90664675     0.40500
H989        H  0.42874239  0.24372578  0.85201499     0.40200
H990        H  0.43213803  0.24099833  0.90610698     0.35100
C991        C  0.50117181  0.31524698  0.64735394    -0.26700
C992        C  0.48213357  0.28802524  0.65003758    -0.14800
C993        C  0.46259219  0.27631618  0.61650802     0.35900
C994        C  0.46292379  0.29194375  0.58088422    -0.26100
C995        C  0.48237259  0.31899596  0.57760395    -0.15400
C996        C  0.50142770  0.33079139  0.61185382     0.37000
N997        N  0.52190674  0.35817415  0.61080819    -0.89600
H998        H  0.51623939  0.32451170  0.67285740     0.18100
H999        H  0.44832385  0.28271193  0.55469953     0.18100
N1000       N  0.44317451  0.24838736  0.61761992    -0.88600
H1001       H  0.51280670  0.36980814  0.61169533     0.35400
H1002       H  0.53252003  0.36176739  0.58145790     0.40500
H1003       H  0.45339365  0.23787619  0.61403478     0.40200
H1004       H  0.43008727  0.24305476  0.59081772     0.35100
C1005       C  0.83928953  0.50970871  0.88694106    -0.26700
C1006       C  0.82572974  0.49056215  0.91950126    -0.14800
C1007       C  0.79852132  0.47169193  0.91359089     0.35900
C1008       C  0.78508959  0.47305837  0.87607480    -0.26100
C1009       C  0.79800180  0.49347511  0.84510114    -0.15400
C1010       C  0.82560221  0.51170399  0.85003254     0.37000
N1011       N  0.83970378  0.53193869  0.81757928    -0.89600
H1012       H  0.86025656  0.52406601  0.89156713     0.18100
H1013       H  0.76411259  0.45866360  0.87193546     0.18100
N1014       N  0.78455260  0.45147130  0.94614149    -0.88600
H1015       H  0.86018363  0.54201856  0.82425133     0.35400
H1016       H  0.83370269  0.54611547  0.82071986     0.40500
H1017       H  0.79305910  0.43926408  0.94682085     0.40200
H1018       H  0.76455017  0.43933530  0.93712140     0.35100
C1019       C  0.81537903  0.51341969  0.58017838    -0.26700
C1020       C  0.82644128  0.49672695  0.58122517    -0.14800
C1021       C  0.82380696  0.48178677  0.61936314     0.35900
C1022       C  0.80943626  0.48337797  0.65537719    -0.26100
C1023       C  0.79823672  0.49997008  0.65401772    -0.15400
C1024       C  0.80154038  0.51543554  0.61632391     0.37000
N1025       N  0.78965273  0.53204338  0.61397374    -0.89600
H1026       H  0.81747886  0.52490539  0.55082375     0.18100
H1027       H  0.80673222  0.47148958  0.68445090     0.18100
N1028       N  0.83496461  0.46453519  0.62087413    -0.88600
H1029       H  0.79238283  0.54061174  0.58277466     0.35400
H1030       H  0.79990783  0.54782527  0.63604028     0.40500
H1031       H  0.82501267  0.44957397  0.59727883     0.40200
H1032       H  0.83129276  0.45503735  0.65137541     0.35100
C1033       C  0.91067195  0.48923707  0.46755822    -0.26700
C1034       C  0.90284460  0.49801418  0.00191702    -0.14800
C1035       C  0.92043767  0.50795325  0.03856021     0.35900
C1036       C  0.94493942  0.50833719  0.03715376    -0.26100
C1037       C  0.95245153  0.49943796  0.99986896    -0.15400
C1038       C  0.93527815  0.48999488  0.46661707     0.37000
N1039       N  0.94361071  0.48271061  0.92352601    -0.89600
H1040       H  0.89821386  0.48276285  0.43833038     0.18100
H1041       H  0.95822833  0.51543929  0.06539410     0.18100
N1042       N  0.91093330  0.51317021  0.58275980    -0.88600
H1043       H  0.92962938  0.47717670  0.40233963     0.35400
H1044       H  0.96108350  0.49968412  0.41625539     0.40500
H1045       H  0.91313300  0.53497466  0.06738727     0.40200
H1046       H  0.92852374  0.52395271  0.10094142     0.35100
C1047       C  0.92101027  0.40670935  0.96627634    -0.26700
C1048       C  0.90365120  0.40082342  0.00209850    -0.14800
C1049       C  0.91067362  0.41840348  0.53899949     0.35900
C1050       C  0.93564882  0.44177990  0.53921670    -0.26100
C1051       C  0.95340029  0.44873982  0.00010702    -0.15400
C1052       C  0.94569716  0.43028309  0.96496761     0.37000
N1053       N  0.96220432  0.43511827  0.92713845    -0.89600
H1054       H  0.91548638  0.39277898  0.93909922     0.18100
H1055       H  0.94090420  0.45579121  0.56620033     0.18100
N1056       N  0.89186377  0.41396666  0.57331624    -0.88600
H1057       H  0.97996825  0.43612530  0.93702929     0.35400
H1058       H  0.96669025  0.45338309  0.91339769     0.40500
H1059       H  0.87565818  0.41440075  0.55882559     0.40200
H1060       H  0.90001601  0.42947012  0.59635943     0.35100
C1061       C  0.09108715  0.58552762  0.54142233    -0.26700
C1062       C  0.09734550  0.60121311  0.50321564    -0.14800
C1063       C  0.08057918  0.59222409  0.96491219     0.35900
C1064       C  0.05720866  0.56722946  0.96674223    -0.26100
C1065       C  0.05012053  0.55099045  0.50787897    -0.15400
C1066       C  0.06771802  0.56073656  0.54439308     0.37000
N1067       N  0.06226025  0.54659706  0.58536917    -0.89600
H1068       H  0.10454897  0.59244883  0.56943991     0.18100
H1069       H  0.04335231  0.56054423  0.93923306     0.18100
N1070       N  0.08537458  0.60902243  0.92729030    -0.88600
H1071       H  0.07691635  0.54132717  0.59017114     0.35400
H1072       H  0.04383382  0.52906276  0.58493945     0.40500
H1073       H  0.08455446  0.62575420  0.93794737     0.40200
H1074       H  0.07021178  0.59951411  0.90382295     0.35100
C1075       C  0.09539105  0.51099041  0.96777334    -0.26700
C1076       C  0.10278856  0.50336282  0.50887777    -0.14800
C1077       C  0.08516974  0.49351269  0.54512312     0.35900
C1078       C  0.06047158  0.49258226  0.54272042    -0.26100
C1079       C  0.05286463  0.50118156  0.50514900    -0.15400
C1080       C  0.07066708  0.50974137  0.96432627     0.37000
N1081       N  0.06422575  0.51781717  0.92350177    -0.89600
H1082       H  0.10898843  0.51903283  0.94027945     0.18100
H1083       H  0.04706839  0.48530692  0.57057055     0.18100
N1084       N  0.09211367  0.48420729  0.58406065    -0.88600
H1085       H  0.07739607  0.53821081  0.91968367     0.35400
H1086       H  0.04492357  0.51487642  0.92340013     0.40500
H1087       H  0.09277725  0.46709603  0.57538700     0.40200
H1088       H  0.07727229  0.47838530  0.60792082     0.35100
C1089       C  0.20252875  0.68388656  0.58015184    -0.26700
C1090       C  0.17498886  0.67434269  0.57943563    -0.14800
C1091       C  0.16276315  0.67863405  0.61616230     0.35900
C1092       C  0.17859262  0.69300436  0.65253310    -0.26100
C1093       C  0.20623370  0.70288701  0.65287899    -0.15400
C1094       C  0.21818635  0.69789620  0.61640093     0.37000
N1095       N  0.24633924  0.70800827  0.61418058    -0.89600
H1096       H  0.21205157  0.68073924  0.55194205     0.18100
H1097       H  0.16943437  0.69692688  0.68042933     0.18100
N1098       N  0.13461854  0.66929912  0.61573750    -0.88600
H1099       H  0.25189306  0.69972007  0.63976053     0.35400
H1100       H  0.25606917  0.72864665  0.61833982     0.40500
H1101       H  0.13095465  0.67959537  0.59097861     0.40200
H1102       H  0.12880457  0.67404498  0.64536121     0.35100
C1103       C  0.19066386  0.71638006  0.87439611    -0.26700
C1104       C  0.19830101  0.70368275  0.84301060    -0.14800
C1105       C  0.18981679  0.67624312  0.84833388     0.35900
C1106       C  0.17622473  0.66317595  0.88678700    -0.26100
C1107       C  0.17039944  0.67654451  0.91944221    -0.15400
C1108       C  0.17709478  0.70324524  0.91254588     0.37000
N1109       N  0.17036077  0.71751199  0.94367217    -0.89600
H1110       H  0.19639678  0.73712525  0.87037555     0.18100
H1111       H  0.17061331  0.64250346  0.89155864     0.18100
N1112       N  0.19438292  0.66096012  0.81570102    -0.88600
H1113       H  0.18019875  0.71908405  0.97336936     0.35400
H1114       H  0.14978783  0.70668768  0.94901825     0.40500
H1115       H  0.20126039  0.67146240  0.78634771     0.40200
H1116       H  0.17587057  0.64456241  0.80751823     0.35100
C1117       C  0.31616251  0.49270649  0.66385548    -0.26700
C1118       C  0.30183859  0.50633753  0.66118340    -0.14800
C1119       C  0.30341888  0.52063941  0.62250372     0.35900
C1120       C  0.31976011  0.52147295  0.58827118    -0.26100
C1121       C  0.33367427  0.50744955  0.59016231    -0.15400
C1122       C  0.33221680  0.49317147  0.62865545     0.37000
N1123       N  0.34601030  0.47838559  0.63126546    -0.89600
H1124       H  0.31488994  0.48179510  0.69354485     0.18100
H1125       H  0.32065422  0.53241922  0.55880014     0.18100
N1126       N  0.28806055  0.53369509  0.61572311    -0.88600
H1127       H  0.34156707  0.46780843  0.66080011     0.35400
H1128       H  0.36641715  0.49216595  0.63240059     0.40500
H1129       H  0.27458531  0.52998038  0.64104071     0.40200
H1130       H  0.27623463  0.52528801  0.58765764     0.35100
C1131       C  0.28975499  0.48900883  0.89028207    -0.26700
C1132       C  0.30346224  0.50582319  0.85501080    -0.14800
C1133       C  0.33169301  0.52148530  0.85677596     0.35900
C1134       C  0.34514783  0.52083439  0.89495509    -0.26100
C1135       C  0.33114479  0.50476983  0.93084025    -0.15400
C1136       C  0.30325804  0.48838432  0.92801491     0.37000
N1137       N  0.28853530  0.47092399  0.96339670    -0.89600
H1138       H  0.26820931  0.47670331  0.88909153     0.18100
H1139       H  0.36664521  0.53329498  0.89684471     0.18100
N1140       N  0.34735689  0.53784583  0.82075067    -0.88600
H1141       H  0.27833779  0.45145607  0.95111033     0.35400
H1142       H  0.27440234  0.47587300  0.97406094     0.40500
H1143       H  0.33565105  0.53526912  0.79300476     0.40200
H1144       H  0.36043173  0.53121813  0.81140980     0.35100
C1145       C  0.22340021  0.52748074  0.88913988    -0.26700
C1146       C  0.20978280  0.50967781  0.85455475    -0.14800
C1147       C  0.18159561  0.49381295  0.85601551     0.35900
C1148       C  0.16813118  0.49495329  0.89353200    -0.26100
C1149       C  0.18200784  0.51185351  0.92895442    -0.15400
C1150       C  0.20984722  0.52882546  0.92623190     0.37000
N1151       N  0.22427013  0.54720996  0.96131825    -0.89600
H1152       H  0.24490512  0.53996739  0.88772122     0.18100
H1153       H  0.14669453  0.48210416  0.89535893     0.18100
N1154       N  0.16595684  0.47668774  0.82032929    -0.88600
H1155       H  0.24464468  0.55809779  0.95429164     0.35400
H1156       H  0.21758183  0.56092684  0.96299282     0.40500
H1157       H  0.17758120  0.47905906  0.79276524     0.40200
H1158       H  0.15256665  0.48281147  0.81029095     0.35100
C1159       C  0.20674832  0.49113697  0.62640617    -0.26700
C1160       C  0.20788984  0.50603324  0.66349428    -0.14800
C1161       C  0.19320642  0.51958997  0.66385624     0.35900
C1162       C  0.17874977  0.51878810  0.62602524    -0.26100
C1163       C  0.17859151  0.50473946  0.58825319    -0.15400
C1164       C  0.19226871  0.49027198  0.58885238     0.37000
N1165       N  0.19144420  0.47476079  0.55124529    -0.89600
H1166       H  0.21772659  0.48050270  0.62644255     0.18100
H1167       H  0.16808287  0.52971877  0.62581564     0.18100
N1168       N  0.19224730  0.53404395  0.70167416    -0.88600
H1169       H  0.20279031  0.46558437  0.55691874     0.35400
H1170       H  0.17170490  0.45948257  0.54709281     0.40500
H1171       H  0.20264634  0.53231748  0.72838139     0.40200
H1172       H  0.17234257  0.52516409  0.71157243     0.35100
C1173       C  0.56870083  0.05605838  0.96710048    -0.26700
C1174       C  0.55321672  0.04865933  0.50513369    -0.14800
C1175       C  0.56187597  0.06609373  0.54186978     0.35900
C1176       C  0.58564575  0.09054680  0.53919666    -0.26100
C1177       C  0.60134393  0.09820747  0.50097280    -0.15400
C1178       C  0.59317009  0.08011154  0.96510860     0.37000
N1179       N  0.60893232  0.08671620  0.92577740    -0.89600
H1180       H  0.56162618  0.04301655  0.93860413     0.18100
H1181       H  0.59163731  0.10382959  0.56735247     0.18100
N1182       N  0.54743234  0.05959365  0.58262040    -0.88600
H1183       H  0.59928857  0.07204326  0.90164244     0.35400
H1184       H  0.62654585  0.08676353  0.93370835     0.40500
H1185       H  0.53088801  0.04043788  0.58219713     0.40200
H1186       H  0.54045714  0.07294608  0.58698365     0.35100
C1187       C  0.51595666  0.21370678  0.61919500    -0.26700
C1188       C  0.49598858  0.19986635  0.65052205    -0.14800
C1189       C  0.47896908  0.17209505  0.64551606     0.35900
C1190       C  0.48153713  0.15906759  0.60819068    -0.26100
C1191       C  0.50055042  0.17330474  0.57570109    -0.15400
C1192       C  0.51825394  0.20087052  0.58188354     0.37000
N1193       N  0.53903358  0.21631580  0.55116679    -0.89600
H1194       H  0.52936743  0.23494069  0.62289265     0.18100
H1195       H  0.46813240  0.13789328  0.60374753     0.18100
N1196       N  0.45920940  0.15725741  0.67826003    -0.88600
H1197       H  0.53049708  0.21670688  0.52102699     0.35400
H1198       H  0.55058098  0.20725408  0.54677163     0.40500
H1199       H  0.46927816  0.15834702  0.70754994     0.40200
H1200       H  0.44830060  0.13712176  0.66957146     0.35100
C1201       C  0.51626862  0.19688777  0.84905534    -0.26700
C1202       C  0.49287614  0.19830010  0.84342080    -0.14800
C1203       C  0.47199049  0.18541187  0.87419175     0.35900
C1204       C  0.47527525  0.17213264  0.91017463    -0.26100
C1205       C  0.49881265  0.17125128  0.91626712    -0.15400
C1206       C  0.51947631  0.18341524  0.88490408     0.37000
N1207       N  0.54433254  0.18363389  0.88922338    -0.89600
H1208       H  0.53239795  0.20663704  0.82567918     0.18100
H1209       H  0.45958872  0.16297099  0.93446609     0.18100
N1210       N  0.44792450  0.18670690  0.86994011    -0.88600
H1211       H  0.54582868  0.17311619  0.86245300     0.35400
H1212       H  0.54493572  0.17378045  0.91752415     0.40500
H1213       H  0.45304196  0.20655457  0.87465697     0.40200
H1214       H  0.43446165  0.17582772  0.89486061     0.35100
C1215       C  0.51432571  0.06824527  0.96761656    -0.26700
C1216       C  0.50271307  0.05022645  0.50284292    -0.14800
C1217       C  0.49065961  0.05723113  0.53647286     0.35900
C1218       C  0.49090789  0.08155614  0.53445797    -0.26100
C1219       C  0.50285997  0.09915055  0.49908625    -0.15400
C1220       C  0.51500311  0.09278426  0.96543166     0.37000
N1221       N  0.52797260  0.11017421  0.92910172    -0.89600
H1222       H  0.52298986  0.06260030  0.94110818     0.18100
H1223       H  0.48140635  0.08652390  0.56052790     0.18100
N1224       N  0.47852699  0.03985070  0.57313834    -0.88600
H1225       H  0.51860528  0.10002069  0.90008961     0.35400
H1226       H  0.54776066  0.11437826  0.92839640     0.40500
H1227       H  0.45854519  0.03495322  0.57439579     0.40200
H1228       H  0.48795212  0.05031631  0.60190545     0.35100
C1229       C  0.29750126  0.81493703  0.92586020    -0.26700
C1230       C  0.32546540  0.82830037  0.92444560    -0.14800
C1231       C  0.33818194  0.82710504  0.88564027     0.35900
C1232       C  0.32252134  0.81173706  0.84978368    -0.26100
C1233       C  0.29455322  0.79804428  0.85167056    -0.15400
C1234       C  0.28185378  0.79970130  0.89034546     0.37000
N1235       N  0.25334027  0.78552957  0.89577484    -0.89600
H1236       H  0.28757582  0.81573625  0.95553668     0.18100
H1237       H  0.33215898  0.81032765  0.82019948     0.18100
N1238       N  0.36677708  0.84033444  0.88342061    -0.88600
H1239       H  0.24887068  0.77234432  0.92203487     0.35400
H1240       H  0.24338533  0.77373924  0.86857460     0.40500
H1241       H  0.37383067  0.86080140  0.88298199     0.40200
H1242       H  0.37279555  0.83590874  0.85370401     0.35100
C1243       C  0.32819584  0.83900078  0.61912650    -0.26700
C1244       C  0.33170663  0.82523023  0.58418231    -0.14800
C1245       C  0.32234247  0.79766703  0.58857642     0.35900
C1246       C  0.30893567  0.78443636  0.62670740    -0.26100
C1247       C  0.30355524  0.79769703  0.66023479    -0.15400
C1248       C  0.31427787  0.82564050  0.65723544     0.37000
N1249       N  0.31165696  0.84110773  0.69189973    -0.89600
H1250       H  0.33563261  0.86019410  0.61628866     0.18100
H1251       H  0.30146416  0.76322887  0.62908486     0.18100
N1252       N  0.32609913  0.78250702  0.55494072    -0.88600
H1253       H  0.33088963  0.85565155  0.70142776     0.35400
H1254       H  0.30322126  0.82970985  0.72002363     0.40500
H1255       H  0.34637110  0.79182139  0.54730411     0.40200
H1256       H  0.31533325  0.78190470  0.52685965     0.35100
C1257       C  0.41810733  0.91057179  0.54173733    -0.26700
C1258       C  0.40148094  0.90256703  0.00407267    -0.14800
C1259       C  0.41031851  0.91938020  0.96675032     0.35900
C1260       C  0.43440771  0.94370705  0.96854113    -0.26100
C1261       C  0.45107709  0.95122002  0.50584516    -0.15400
C1262       C  0.44233595  0.93470625  0.54347126     0.37000
N1263       N  0.45706768  0.94193464  0.58422427    -0.89600
H1264       H  0.41193272  0.89808778  0.57073994     0.18100
H1265       H  0.44111353  0.95618677  0.93952012     0.18100
N1266       N  0.39498876  0.91208194  0.92685553    -0.88600
H1267       H  0.46326642  0.92809567  0.59008634     0.35400
H1268       H  0.47416851  0.96067111  0.58267867     0.40500
H1269       H  0.40690223  0.91155942  0.90151791     0.40200
H1270       H  0.39037427  0.92692756  0.91950362     0.35100
C1271       C  0.46842740  0.79015640  0.57159718    -0.26700
C1272       C  0.48434417  0.81802687  0.57038331    -0.14800
C1273       C  0.50069936  0.83154454  0.60705249     0.35900
C1274       C  0.50133757  0.81676671  0.64332616    -0.26100
C1275       C  0.48585262  0.78885680  0.64395157    -0.15400
C1276       C  0.46879262  0.77544413  0.60801489     0.37000
N1277       N  0.45296285  0.74686469  0.60745121    -0.89600
H1278       H  0.45575494  0.77970786  0.54366652     0.18100
H1279       H  0.51438994  0.82704633  0.67096921     0.18100
N1280       N  0.51733256  0.86003714  0.60679098    -0.88600
H1281       H  0.44328989  0.74009497  0.57709944     0.35400
H1282       H  0.43788353  0.74137161  0.63076135     0.40500
H1283       H  0.53163820  0.86490828  0.58224418     0.40200
H1284       H  0.52778500  0.86681484  0.63651919     0.35100
C1285       C  0.49949011  0.83278508  0.87312340    -0.26700
C1286       C  0.48271536  0.81899613  0.90845563    -0.14800
C1287       C  0.46609041  0.79111016  0.90538556     0.35900
C1288       C  0.46759857  0.77737835  0.86851877    -0.26100
C1289       C  0.48571643  0.79089721  0.83463236    -0.15400
C1290       C  0.50124463  0.81898972  0.83622659     0.37000
N1291       N  0.51893659  0.83333410  0.80067742    -0.89600
H1292       H  0.51216704  0.85420745  0.87521507     0.18100
H1293       H  0.45533748  0.75587447  0.86737304     0.18100
N1294       N  0.44779974  0.77658284  0.93995339    -0.88600
H1295       H  0.52898565  0.85380702  0.80702809     0.35400
H1296       H  0.50723295  0.83026125  0.77257729     0.40500
H1297       H  0.45243305  0.76246242  0.95188301     0.40200
H1298       H  0.42858736  0.76641443  0.92645138     0.35100
C1299       C  0.48775832  0.93338550  0.96102250    -0.26700
C1300       C  0.50077460  0.94922068  0.49809411    -0.14800
C1301       C  0.51065298  0.93982850  0.53177778     0.35900
C1302       C  0.50729044  0.91412049  0.52879564    -0.26100
C1303       C  0.49441825  0.89753767  0.49229326    -0.15400
C1304       C  0.48514161  0.90803581  0.95733109     0.37000
N1305       N  0.47145002  0.89171781  0.91998431    -0.89600
H1306       H  0.47984646  0.94031908  0.93509015     0.18100
H1307       H  0.51472711  0.90710706  0.55533728     0.18100
N1308       N  0.52351915  0.95609967  0.56956785    -0.88600
H1309       H  0.48142173  0.90198276  0.89159342     0.35400
H1310       H  0.45221355  0.88907335  0.91906263     0.40500
H1311       H  0.54275373  0.95882747  0.57167799     0.40200
H1312       H  0.51307185  0.94572990  0.59757458     0.35100
C1313       C  0.80037090  0.31877015  0.58348224    -0.26700
C1314       C  0.82776452  0.32772360  0.58277666    -0.14800
C1315       C  0.84006505  0.32342651  0.61953400     0.35900
C1316       C  0.82432686  0.30932819  0.65585520    -0.26100
C1317       C  0.79678985  0.29999081  0.65611418    -0.15400
C1318       C  0.78476554  0.30521801  0.61990451     0.37000
N1319       N  0.75651530  0.29545081  0.61910116    -0.89600
H1320       H  0.79104084  0.32219321  0.55516028     0.18100
H1321       H  0.83344132  0.30524053  0.68374699     0.18100
N1322       N  0.86815106  0.33249756  0.61919090    -0.88600
H1323       H  0.75058357  0.29897639  0.58847339     0.35400
H1324       H  0.75265908  0.30660442  0.64189561     0.40500
H1325       H  0.87154827  0.32200391  0.59445557     0.40200
H1326       H  0.87402855  0.32778194  0.64884977     0.35100
C1327       C  0.81191108  0.32329336  0.84814039    -0.26700
C1328       C  0.79687228  0.29539634  0.85036824    -0.14800
C1329       C  0.79757487  0.28239119  0.88935946     0.35900
C1330       C  0.81380063  0.29759424  0.92436252    -0.26100
C1331       C  0.82864228  0.32552143  0.92262870    -0.15400
C1332       C  0.82777864  0.33847437  0.88372929     0.37000
N1333       N  0.84187991  0.36688187  0.87990224    -0.89600
H1334       H  0.81123005  0.33336208  0.81853887     0.18100
H1335       H  0.81408308  0.28734531  0.95401143     0.18100
N1336       N  0.78144824  0.25405737  0.89563811    -0.88600
H1337       H  0.86229827  0.37380390  0.88286472     0.35400
H1338       H  0.83597415  0.37483175  0.90551042     0.40500
H1339       H  0.76866099  0.24456349  0.86917306     0.40200
H1340       H  0.76901160  0.25093904  0.92254579     0.35100
C1341       C  0.68777534  0.21330775  0.87150161    -0.26700
C1342       C  0.70024949  0.20305872  0.84466290    -0.14800
C1343       C  0.69639484  0.17743405  0.85365371     0.35900
C1344       C  0.68141757  0.16343943  0.89069322    -0.26100
C1345       C  0.67018811  0.17447131  0.91853065    -0.15400
C1346       C  0.67273501  0.19937431  0.90800027     0.37000
N1347       N  0.65991828  0.21094559  0.93278973    -0.89600
H1348       H  0.69007070  0.23268043  0.86467223     0.18100
H1349       H  0.67924497  0.14425257  0.89875316     0.18100
N1350       N  0.70780713  0.16580819  0.82558869    -0.88600
H1351       H  0.67478360  0.22822964  0.94800373     0.35400
H1352       H  0.64754286  0.19826884  0.95731811     0.40500
H1353       H  0.69860862  0.16265014  0.79472990     0.40200
H1354       H  0.70337521  0.14709149  0.83724234     0.35100
C1355       C  0.67691357  0.16528580  0.61071982    -0.26700
C1356       C  0.67136075  0.17849719  0.57723359    -0.14800
C1357       C  0.67955076  0.20578948  0.58280094     0.35900
C1358       C  0.69357086  0.21927744  0.62069509    -0.26100
C1359       C  0.70041692  0.20648097  0.65300241    -0.15400
C1360       C  0.69155359  0.17905072  0.64846661     0.37000
N1361       N  0.69742628  0.16531264  0.68213231    -0.89600
H1362       H  0.67053331  0.14436228  0.60677382     0.18100
H1363       H  0.70011831  0.24028221  0.62402090     0.18100
N1364       N  0.67381066  0.22037649  0.55080029    -0.88600
H1365       H  0.68959833  0.14528370  0.67366499     0.35400
H1366       H  0.68761811  0.16565781  0.71075039     0.40500
H1367       H  0.65332216  0.21010989  0.54423138     0.40200
H1368       H  0.68417728  0.22180796  0.52197057     0.35100
loop_ 
_geom_bond_atom_site_label_1 
_geom_bond_atom_site_label_2 
_geom_bond_distance 
_geom_bond_site_symmetry_2 
_ccdc_geom_bond_type 
O1           Ni9   1.925       .  S
O1           C11   1.283       .  A
O2           Ni9   1.922       .  S
O2           C12   1.283       .  A
O3           Ni9   1.912       .  S
O3           C13   1.280       .  A
O4           Ni9   1.911       .  S
O4           C14   1.280       .  A
O5          Ni10   1.921       .  S
O5           C14   1.282       .  A
O6          Ni10   1.920       .  S
O6           C13   1.282       .  A
O7          Ni10   1.905       .  S
O7           C12   1.280       .  A
O8          Ni10   1.903       .  S
O8           C11   1.278       .  A
Ni9         Ni10   2.389       .  S
C11         C633   1.475       .  S
C12         C658   1.483       .  S
C13         C675   1.477       .  S
C14         C644   1.473       .  S
C15         C619   1.492       .  S
C15          N20   1.363   1_556  A
C15         N700   1.365       .  A
N16          C17   1.359       .  A
N16         C699   1.362       .  A
C17         C602   1.480       .  S
C17         N702   1.355       .  A
N18          C19   1.353   1_556  A
N18         C701   1.353       .  A
C19         C588   1.482       .  S
C19          N20   1.359       .  A
C21         C574   1.494       .  S
C21          N26   1.364       .  A
C21         N706   1.365       .  A
N22          C23   1.359       .  A
N22         C705   1.365       .  A
C23         C560   1.477       .  S
C23         N708   1.353       .  A
N24          C25   1.354       .  A
N24         C707   1.351       .  A
C25         C546   1.485       .  S
C25          N26   1.360       .  A
C27         C535   1.490       .  S
C27          N32   1.364   1_556  A
C27         N712   1.364       .  A
N28          C29   1.358       .  A
N28         C711   1.363       .  A
C29         C521   1.473       .  S
C29         N714   1.354       .  A
N30          C31   1.354   1_556  A
N30         C713   1.354       .  A
C31         C507   1.479       .  S
C31          N32   1.361       .  A
C33         C493   1.495       .  S
C33          N34   1.365       .  A
C33         N722   1.362   1_554  A
N34          C35   1.361       .  A
C35         C672   1.481       .  S
C35          N36   1.353   1_554  A
N36         C721   1.353       .  A
C37         C661   1.469       .  S
C37          N38   1.356       .  A
C37         N720   1.353       .  A
N38         C717   1.361       .  A
C39         C616   1.489   1_554  S
C39          C40   1.414       .  A
C39          C44   1.405       .  A
C40         C577   1.485       .  S
C40          C41   1.404   1_565  A
C41          C42   1.406       .  A
C41          H46   1.084       .  S
C42         C532   1.492       .  S
C42          C43   1.417       .  A
C43         C490   1.487       .  S
C43          C44   1.406   1_545  A
C44          H45   1.084       .  S
O47         Ni55   1.922       .  S
O47          C57   1.283       .  A
O48         Ni55   1.924       .  S
O48          C58   1.282       .  A
O49         Ni55   1.904       .  S
O49          C59   1.278       .  A
O50         Ni55   1.904       .  S
O50          C60   1.279       .  A
O51         Ni56   1.924       .  S
O51          C60   1.282       .  A
O52         Ni56   1.922       .  S
O52          C59   1.283       .  A
O53         Ni56   1.905       .  S
O53          C58   1.279       .  A
O54         Ni56   1.903       .  S
O54          C57   1.279       .  A
Ni55        Ni56   2.392       .  S
C57         C462   1.474       .  S
C58         C434   1.470       .  S
C59         C448   1.471       .  S
C60         C476   1.472       .  S
O61         Ni69   1.923       .  S
O61          C71   1.282       .  A
O62         Ni69   1.918       .  S
O62          C72   1.282       .  A
O63         Ni69   1.917       .  S
O63          C73   1.280       .  A
O64         Ni69   1.916       .  S
O64          C74   1.281       .  A
O65         Ni70   1.915       .  S
O65          C74   1.281       .  A
O66         Ni70   1.916       .  S
O66          C73   1.281       .  A
O67         Ni70   1.918       .  S
O67          C72   1.281       .  A
O68         Ni70   1.914       .  S
O68          C71   1.281       .  A
Ni69        Ni70   2.389       .  S
C71         C420   1.483       .  S
C72         C563   1.481       .  S
C73         C549   1.471       .  S
C74         C409   1.478       .  S
C75         C392   1.491       .  S
C75          N76   1.366       .  A
C75         N764   1.363   1_554  A
N76          C77   1.361       .  A
C77         C479   1.476       .  S
C77          N78   1.352       .  A
N78         C763   1.350   1_554  A
C79         C465   1.471       .  S
C79          N80   1.356       .  A
C79         N762   1.351       .  A
N80         C759   1.363       .  A
C81         C378   1.492       .  S
C81          N86   1.363       .  A
C81         N766   1.362   1_554  A
N82          C83   1.358       .  A
N82         C765   1.363       .  A
C83         C423   1.473       .  S
C83         N768   1.353       .  A
N84          C85   1.354   1_556  A
N84         C767   1.354       .  A
C85         C406   1.472       .  S
C85          N86   1.358       .  A
C87         C364   1.486       .  S
C87          N92   1.364       .  A
C87         N772   1.361       .  A
N88          C89   1.356       .  A
N88         C771   1.362       .  A
C89         C630   1.471       .  S
C89         N774   1.351       .  A
N90          C91   1.354       .  A
N90         C773   1.352       .  A
C91         C647   1.480       .  S
C91          N92   1.360       .  A
C93         C350   1.491       .  S
C93          N94   1.363       .  A
C93         N782   1.362       .  A
N94          C95   1.357       .  A
C95         C322   1.470       .  S
C95          N96   1.352       .  A
N96         C781   1.353       .  A
C97         C336   1.480       .  S
C97          N98   1.360       .  A
C97         N780   1.354   1_554  A
N98         C777   1.364       .  A
C99         C395   1.486       .  S
C99         C100   1.415       .  A
C99         C104   1.404   1_554  A
C100        C381   1.485       .  S
C100        C101   1.403       .  A
C101        C102   1.402   1_455  A
C101        H106   1.084       .  S
C102       C1037   1.486   1_554  S
C102        C103   1.417   1_554  A
C103       C1051   1.487   1_556  S
C103        C104   1.405   1_655  A
C104        H105   1.084   1_556  S
O107       Ni115   1.921       .  S
O107        C117   1.282       .  A
O108       Ni115   1.927       .  S
O108        C118   1.284       .  A
O109       Ni115   1.916       .  S
O109        C119   1.281       .  A
O110       Ni115   1.914       .  S
O110        C120   1.281       .  A
O111       Ni116   1.927       .  S
O111        C120   1.283       .  A
O112       Ni116   1.923       .  S
O112        C119   1.282       .  A
O113       Ni116   1.913       .  S
O113        C118   1.280       .  A
O114       Ni116   1.919       .  S
O114        C117   1.282       .  A
Ni115      Ni116   2.386       .  S
C117        C308   1.483       .  S
C118        C518   1.489       .  S
C119        C504   1.481       .  S
C120        C294   1.484       .  S
O121       Ni129   1.915       .  S
O121        C131   1.280       .  A
O122       Ni129   1.911       .  S
O122        C132   1.280       .  A
O123       Ni129   1.919       .  S
O123        C133   1.281       .  A
O124       Ni129   1.916       .  S
O124        C134   1.281       .  A
O125       Ni130   1.919       .  S
O125        C134   1.281       .  A
O126       Ni130   1.914       .  S
O126        C133   1.280       .  A
O127       Ni130   1.918       .  S
O127        C132   1.281       .  A
O128       Ni130   1.915       .  S
O128        C131   1.282       .  A
Ni129      Ni130   2.390       .  S
C131        C325   1.480       .  S
C132        C266   1.474       .  S
C133        C283   1.473       .  S
C134        C339   1.473       .  S
O135       Ni143   1.919       .  S
O135        C145   1.282       .  A
O136       Ni143   1.922       .  S
O136        C146   1.283       .  A
O137       Ni143   1.915       .  S
O137        C147   1.281       .  A
O138       Ni143   1.913       .  S
O138        C148   1.280       .  A
O139       Ni144   1.919       .  S
O139        C148   1.282       .  A
O140       Ni144   1.918       .  S
O140        C147   1.281       .  A
O141       Ni144   1.916       .  S
O141        C146   1.281       .  A
O142       Ni144   1.919       .  S
O142        C145   1.281       .  A
Ni143      Ni144   2.385       .  S
C145        C255   1.488       .  S
C146        C605   1.484       .  S
C147        C591   1.480       .  S
C148        C238   1.483       .  S
C149        C224   1.488       .  S
C149        N150   1.362       .  A
C149        N838   1.365       .  A
N150        C151   1.355       .  A
C151        C451   1.473       .  S
C151        N152   1.349       .  A
N152        C837   1.353       .  A
C153        C437   1.484       .  S
C153        N154   1.361       .  A
C153        N836   1.353       .  A
N154        C833   1.366       .  A
C155        C213   1.491       .  S
C155        N160   1.362       .  A
C155        N840   1.364       .  A
N156        C157   1.358       .  A
N156        C839   1.363   1_554  A
C157        C252   1.475       .  S
C157        N842   1.354   1_554  A
N158        C159   1.354       .  A
N158        C841   1.354       .  A
C159        C241   1.476       .  S
C159        N160   1.359       .  A
C161        C196   1.493       .  S
C161        N166   1.363       .  A
C161        N846   1.365       .  A
N162        C163   1.361       .  A
N162        C845   1.364   1_554  A
C163        C311   1.488       .  S
C163        N848   1.357   1_554  A
N164        C165   1.355       .  A
N164        C847   1.357       .  A
C165        C297   1.485       .  S
C165        N166   1.360       .  A
C167        C185   1.495       .  S
C167        N168   1.364       .  A
C167        N856   1.363       .  A
N168        C169   1.359       .  A
C169        C280   1.479       .  S
C169        N170   1.354       .  A
N170        C855   1.353       .  A
C171        C269   1.474       .  S
C171        N172   1.357       .  A
C171        N854   1.351       .  A
N172        C851   1.363       .  A
C173        C227   1.485       .  S
C173        C174   1.415       .  A
C173        C178   1.405       .  A
C174        C210   1.490       .  S
C174        C175   1.403       .  A
C175        C176   1.404       .  A
C175        H180   1.084       .  S
C176        C182   1.480       .  S
C176        C177   1.415       .  A
C177        C199   1.491       .  S
C177        C178   1.404       .  A
C178        H179   1.084       .  S
C181        C186   1.405       .  A
C181        C866   1.400   1_554  A
C181        H188   1.084       .  S
C182        C183   1.412       .  A
C182        C865   1.399       .  A
C183        C184   1.401       .  A
C183        N190   1.438       .  S
C184        C185   1.410       .  A
C184        H189   1.083       .  S
C185        C870   1.420       .  A
C186        C869   1.420       .  A
C186        N187   1.438       .  S
N187        H191   1.046       .  S
N187        H192   1.045       .  S
N190        H193   1.043       .  S
N190        H194   1.045       .  S
C195        C196   1.407       .  A
C195        C200   1.408       .  A
C195        H202   1.083       .  S
C196        C881   1.413       .  A
C197        C198   1.404       .  A
C197        C880   1.411   1_554  A
C197        N204   1.431       .  S
C198        C883   1.403   1_554  A
C198        H203   1.083       .  S
C199        C200   1.412       .  A
C199        C882   1.402       .  A
C200        N201   1.438       .  S
N201        H205   1.046       .  S
N201        H206   1.045       .  S
N204        H207   1.045       .  S
N204        H208   1.046       .  S
C209        C214   1.399       .  A
C209        C894   1.401       .  A
C209        H216   1.083       .  S
C210        C211   1.409       .  A
C210        C893   1.403       .  A
C211        C212   1.407       .  A
C211        N218   1.438       .  S
C212        C213   1.408       .  A
C212        H217   1.083       .  S
C213        C898   1.420       .  A
C214        C897   1.420       .  A
C214        N215   1.432       .  S
N215        H903   1.044       .  S
N215        H904   1.045       .  S
N218        H905   1.045       .  S
N218        H906   1.046       .  S
H219        N899   1.044       .  S
H220        N899   1.046       .  S
H221        N902   1.045       .  S
H222        N902   1.046       .  S
C223        C224   1.408       .  A
C223        C228   1.397       .  A
C223        H230   1.084       .  S
C224        C909   1.419       .  A
C225        C226   1.400       .  A
C225        C908   1.419       .  A
C225        N232   1.432       .  S
C226        C911   1.403       .  A
C226        H231   1.083       .  S
C227        C228   1.411       .  A
C227        C910   1.404       .  A
C228        N229   1.433       .  S
N229        H233   1.044       .  S
N229        H234   1.045       .  S
N232        H235   1.046       .  S
N232        H236   1.043       .  S
C237        C238   1.408       .  A
C237        C242   1.408       .  A
C237        H244   1.084       .  S
C238        C239   1.416       .  A
C239        C240   1.396       .  A
C239        N246   1.433       .  S
C240        C241   1.402       .  A
C240        H245   1.084       .  S
C241        C242   1.410       .  A
C242        N243   1.438       .  S
N243        H247   1.046       .  S
N243        H248   1.046       .  S
N246        H249   1.045       .  S
N246        H250   1.045       .  S
C251        C252   1.401       .  A
C251        C256   1.406       .  A
C251        H258   1.084       .  S
C252        C253   1.408       .  A
C253        C254   1.407       .  A
C253        N260   1.438       .  S
C254        C255   1.408       .  A
C254        H259   1.083       .  S
C255        C256   1.416       .  A
C256        N257   1.438       .  S
N257        H261   1.046       .  S
N257        H262   1.046       .  S
N260        H263   1.046       .  S
N260        H264   1.045       .  S
C265        C266   1.401       .  A
C265        C270   1.401       .  A
C265        H272   1.083       .  S
C266        C267   1.414       .  A
C267        C268   1.401       .  A
C267        N274   1.432       .  S
C268        C269   1.403       .  A
C268        H273   1.084       .  S
C269        C270   1.412       .  A
C270        N271   1.438       .  S
N271        H275   1.046       .  S
N271        H276   1.045       .  S
N274        H277   1.046       .  S
N274        H278   1.044       .  S
C279        C280   1.403       .  A
C279        C284   1.397       .  A
C279        H286   1.084       .  S
C280        C281   1.412       .  A
C281        C282   1.409       .  A
C281        N288   1.437       .  S
C282        C283   1.404       .  A
C282        H287   1.084       .  S
C283        C284   1.417       .  A
C284        N285   1.440       .  S
N285        H289   1.046       .  S
N285        H290   1.041       .  S
N288        H291   1.045       .  S
N288        H292   1.046       .  S
C293        C294   1.405       .  A
C293        C298   1.407       .  A
C293        H300   1.084       .  S
C294        C295   1.412       .  A
C295        C296   1.408       .  A
C295        N302   1.437       .  S
C296        C297   1.406       .  A
C296        H301   1.084       .  S
C297        C298   1.412       .  A
C298        N299   1.438       .  S
N299        H303   1.046       .  S
N299        H304   1.046       .  S
N302        H305   1.045       .  S
N302        H306   1.046       .  S
C307        C308   1.404       .  A
C307        C312   1.402       .  A
C307        H314   1.084       .  S
C308        C309   1.413       .  A
C309        C310   1.406       .  A
C309        N316   1.438       .  S
C310        C311   1.406       .  A
C310        H315   1.084       .  S
C311        C312   1.417       .  A
C312        N313   1.430       .  S
N313        H317   1.044       .  S
N313        H318   1.046       .  S
N316        H319   1.046       .  S
N316        H320   1.046       .  S
C321        C322   1.400       .  A
C321        C326   1.407       .  A
C321        H328   1.084       .  S
C322        C323   1.408       .  A
C323        C324   1.402       .  A
C323        N330   1.438       .  S
C324        C325   1.404       .  A
C324        H329   1.083       .  S
C325        C326   1.416       .  A
C326        N327   1.438       .  S
N327        H331   1.045       .  S
N327        H332   1.045       .  S
N330        H333   1.046       .  S
N330        H334   1.046       .  S
C335        C336   1.404       .  A
C335        C340   1.401       .  A
C335        H342   1.084       .  S
C336        C337   1.412       .  A
C337        C338   1.410       .  A
C337        N344   1.437       .  S
C338        C339   1.404       .  A
C338        H343   1.084       .  S
C339        C340   1.408       .  A
C340        N341   1.438       .  S
N341        H345   1.046       .  S
N341        H346   1.045       .  S
N344        H347   1.046       .  S
N344        H348   1.045       .  S
C349        C354   1.404       .  A
C349       C1034   1.408   1_556  A
C349        H356   1.083       .  S
C350        C351   1.419       .  A
C350       C1033   1.409       .  A
C351        C352   1.406       .  A
C351       N1042   1.438       .  S
C352        C353   1.400       .  A
C352        H357   1.084       .  S
C353        C786   1.481       .  S
C353       C1038   1.406       .  A
C354       C1037   1.407       .  A
C354       N1039   1.437       .  S
N355       C1038   1.437       .  S
N355       H1043   1.045       .  S
N355       H1044   1.045       .  S
N358       C1035   1.438       .  S
N358       H1045   1.046       .  S
N358       H1046   1.045       .  S
H359       N1039   1.045       .  S
H360       N1039   1.046       .  S
H361       N1042   1.045       .  S
H362       N1042   1.046       .  S
C363        C364   1.406       .  A
C363        C368   1.401       .  A
C363        H370   1.084       .  S
C364       C1049   1.416       .  A
C365        C366   1.404       .  A
C365       C1048   1.417       .  A
C365        N372   1.438       .  S
C366       C1051   1.402       .  A
C366        H371   1.084       .  S
C367        C787   1.488       .  S
C367        C368   1.415       .  A
C367       C1050   1.402       .  A
C368        N369   1.433       .  S
N369        H373   1.044       .  S
N369        H374   1.045       .  S
N372        H375   1.046       .  S
N372        H376   1.046       .  S
C377        C378   1.408       .  A
C377        C382   1.401       .  A
C377        H384   1.083       .  S
C378       C1063   1.417   1_554  A
C379        C380   1.405       .  A
C379       C1062   1.416       .  A
C379        N386   1.438       .  S
C380       C1065   1.401       .  A
C380        H385   1.084       .  S
C381        C382   1.415       .  A
C381       C1064   1.401   1_554  A
C382        N383   1.438       .  S
N383        H387   1.045       .  S
N383        H388   1.043       .  S
N386        H389   1.046       .  S
N386        H390   1.046       .  S
C391        C396   1.400       .  A
C391       C1076   1.408       .  A
C391        H398   1.083       .  S
C392        C393   1.416       .  A
C392       C1075   1.408   1_554  A
C393        C394   1.407       .  A
C393        N400   1.437       .  S
C394        C395   1.403       .  A
C394        H399   1.084       .  S
C395       C1080   1.415   1_554  A
C396       C1079   1.414       .  A
C396        N397   1.438       .  S
N397        H401   1.045       .  S
N397        H402   1.043       .  S
N400        H403   1.046       .  S
N400        H404   1.046       .  S
C405        C406   1.401       .  A
C405        C410   1.397       .  A
C405        H412   1.084       .  S
C406        C407   1.409       .  A
C407        C408   1.407       .  A
C407        N414   1.438       .  S
C408        C409   1.405       .  A
C408        H413   1.084       .  S
C409        C410   1.415       .  A
C410        N411   1.433       .  S
N411        H415   1.045       .  S
N411        H416   1.045       .  S
N414        H417   1.046       .  S
N414        H418   1.045       .  S
C419        C420   1.405       .  A
C419        C424   1.395       .  A
C419        H426   1.084       .  S
C420        C421   1.422       .  A
C421        C422   1.406       .  A
C421        N428   1.439       .  S
C422        C423   1.401       .  A
C422        H427   1.084       .  S
C423        C424   1.411       .  A
C424        N425   1.433       .  S
N425        H429   1.044       .  S
N425        H430   1.046       .  S
N428        H431   1.042       .  S
N428        H432   1.046       .  S
C433        C434   1.404       .  A
C433        C438   1.412       .  A
C433        H440   1.084       .  S
C434        C435   1.415       .  A
C435        C436   1.394       .  A
C435        N442   1.441       .  S
C436        C437   1.404       .  A
C436        H441   1.084       .  S
C437        C438   1.414       .  A
C438        N439   1.436       .  S
N439        H443   1.046       .  S
N439        H444   1.044       .  S
N442        H445   1.041       .  S
N442        H446   1.046       .  S
C447        C448   1.402       .  A
C447        C452   1.396       .  A
C447        H454   1.085       .  S
C448        C449   1.418       .  A
C449        C450   1.404       .  A
C449        N456   1.439       .  S
C450        C451   1.403       .  A
C450        H455   1.084       .  S
C451        C452   1.409       .  A
C452        N453   1.433       .  S
N453        H457   1.046       .  S
N453        H458   1.046       .  S
N456        H459   1.042       .  S
N456        H460   1.046       .  S
C461        C462   1.403       .  A
C461        C466   1.398       .  A
C461        H468   1.084       .  S
C462        C463   1.420       .  A
C463        C464   1.404       .  A
C463        N470   1.439       .  S
C464        C465   1.402       .  A
C464        H469   1.084       .  S
C465        C466   1.408       .  A
C466        N467   1.439       .  S
N467        H471   1.046       .  S
N467        H472   1.046       .  S
N470        H473   1.042       .  S
N470        H474   1.046       .  S
C475        C476   1.400       .  A
C475        C480   1.398       .  A
C475        H482   1.085       .  S
C476        C477   1.419       .  A
C477        C478   1.407       .  A
C477        N484   1.439       .  S
C478        C479   1.404       .  A
C478        H483   1.084       .  S
C479        C480   1.411       .  A
C480        N481   1.439       .  S
N481        H485   1.046       .  S
N481        H486   1.046       .  S
N484        H487   1.042       .  S
N484        H488   1.046       .  S
C489        C494   1.407       .  A
C489       C1174   1.402       .  A
C489        H496   1.084       .  S
C490        C491   1.415       .  A
C490       C1173   1.402   1_554  A
C491        C492   1.401       .  A
C491        N498   1.438       .  S
C492        C493   1.407       .  A
C492        H497   1.083       .  S
C493       C1178   1.419   1_554  A
C494       C1177   1.418       .  A
C494        N495   1.438       .  S
N495        H499   1.046       .  S
N495        H500   1.046       .  S
N498        H501   1.043       .  S
N498        H502   1.045       .  S
C503        C504   1.403       .  A
C503        C508   1.398       .  A
C503        H510   1.084       .  S
C504        C505   1.413       .  A
C505        C506   1.409       .  A
C505        N512   1.437       .  S
C506        C507   1.403       .  A
C506        H511   1.084       .  S
C507        C508   1.415       .  A
C508        N509   1.433       .  S
N509        H513   1.044       .  S
N509        H514   1.045       .  S
N512        H515   1.046       .  S
N512        H516   1.045       .  S
C517        C518   1.407       .  A
C517        C522   1.405       .  A
C517        H524   1.084       .  S
C518        C519   1.416       .  A
C519        C520   1.404       .  A
C519        N526   1.438       .  S
C520        C521   1.400       .  A
C520        H525   1.084       .  S
C521        C522   1.415       .  A
C522        N523   1.438       .  S
N523        H527   1.045       .  S
N523        H528   1.043       .  S
N526        H529   1.045       .  S
N526        H530   1.046       .  S
C531        C536   1.405       .  A
C531       C1216   1.403       .  A
C531        H538   1.083       .  S
C532        C533   1.409       .  A
C532       C1215   1.404   1_554  A
C533        C534   1.406       .  A
C533        N540   1.432       .  S
C534        C535   1.407   1_554  A
C534        H539   1.084       .  S
C535       C1220   1.413       .  A
C536       C1219   1.413       .  A
C536        N537   1.432       .  S
N537        H541   1.045       .  S
N537        H542   1.046       .  S
N540        H543   1.045       .  S
N540        H544   1.046       .  S
C545        C546   1.406       .  A
C545        C550   1.397       .  A
C545        H552   1.084       .  S
C546        C547   1.414       .  A
C547        C548   1.409       .  A
C547        N554   1.437       .  S
C548        C549   1.403       .  A
C548        H553   1.084       .  S
C549        C550   1.414       .  A
C550        N551   1.440       .  S
N551        H555   1.046       .  S
N551        H556   1.041       .  S
N554        H557   1.044       .  S
N554        H558   1.046       .  S
C559        C560   1.402       .  A
C559        C564   1.406       .  A
C559        H566   1.084       .  S
C560        C561   1.413       .  A
C561        C562   1.396       .  A
C561        N568   1.433       .  S
C562        C563   1.403       .  A
C562        H567   1.084       .  S
C563        C564   1.421       .  A
C564        N565   1.439       .  S
N565        H569   1.046       .  S
N565        H570   1.042       .  S
N568        H571   1.045       .  S
N568        H572   1.044       .  S
C573        C578   1.403       .  A
C573       C1258   1.409       .  A
C573        H580   1.083       .  S
C574        C575   1.416       .  A
C574       C1257   1.408       .  A
C575        C576   1.403       .  A
C575        N582   1.431       .  S
C576       C1261   1.400       .  A
C576        H581   1.084       .  S
C577        C578   1.416       .  A
C577       C1260   1.400   1_554  A
C578        N579   1.438       .  S
N579        H583   1.045       .  S
N579        H584   1.043       .  S
N582        H585   1.046       .  S
N582        H586   1.046       .  S
C587        C588   1.404       .  A
C587        C592   1.402       .  A
C587        H594   1.084       .  S
C588        C589   1.412       .  A
C589        C590   1.409       .  A
C589        N596   1.438       .  S
C590        C591   1.405       .  A
C590        H595   1.084       .  S
C591        C592   1.412       .  A
C592        N593   1.439       .  S
N593        H597   1.046       .  S
N593        H598   1.045       .  S
N596        H599   1.046       .  S
N596        H600   1.045       .  S
C601        C602   1.402       .  A
C601        C606   1.407       .  A
C601        H608   1.084       .  S
C602        C603   1.411       .  A
C603        C604   1.406       .  A
C603        N610   1.438       .  S
C604        C605   1.405       .  A
C604        H609   1.084       .  S
C605        C606   1.414       .  A
C606        N607   1.438       .  S
N607        H611   1.046       .  S
N607        H612   1.045       .  S
N610        H613   1.046       .  S
N610        H614   1.046       .  S
C615        C620   1.404       .  A
C615       C1300   1.402       .  A
C615        H622   1.084       .  S
C616        C617   1.406   1_556  A
C616       C1299   1.403       .  A
C617        C618   1.406       .  A
C617        N624   1.432       .  S
C618        C619   1.409   1_554  A
C618        H623   1.084       .  S
C619       C1304   1.414       .  A
C620       C1303   1.414       .  A
C620        N621   1.432       .  S
N621        H625   1.046       .  S
N621        H626   1.046       .  S
N624        H627   1.045       .  S
N624        H628   1.046       .  S
C629        C630   1.400       .  A
C629        C634   1.400       .  A
C629        H636   1.084       .  S
C630        C631   1.410       .  A
C631        C632   1.408       .  A
C631        N638   1.437       .  S
C632        C633   1.405       .  A
C632        H637   1.084       .  S
C633        C634   1.413       .  A
C634        N635   1.439       .  S
N635        H639   1.046       .  S
N635        H640   1.045       .  S
N638        H641   1.046       .  S
N638        H642   1.045       .  S
C643        C644   1.404       .  A
C643        C648   1.402       .  A
C643        H650   1.084       .  S
C644        C645   1.418       .  A
C645        C646   1.398       .  A
C645        N652   1.441       .  S
C646        C647   1.404       .  A
C646        H651   1.084       .  S
C647        C648   1.414       .  A
C648        N649   1.432       .  S
N649        H653   1.045       .  S
N649        H654   1.046       .  S
N652        H655   1.041       .  S
N652        H656   1.046       .  S
C657        C658   1.405       .  A
C657        C662   1.395       .  A
C657        H664   1.084       .  S
C658        C659   1.415       .  A
C659        C660   1.408       .  A
C659        N666   1.437       .  S
C660        C661   1.402       .  A
C660        H665   1.084       .  S
C661        C662   1.413       .  A
C662        N663   1.439       .  S
N663        H667   1.045       .  S
N663        H668   1.043       .  S
N666        H669   1.046       .  S
N666        H670   1.045       .  S
C671        C672   1.403       .  A
C671        C676   1.408       .  A
C671        H678   1.084       .  S
C672        C673   1.418       .  A
C673        C674   1.397       .  A
C673        N680   1.432       .  S
C674        C675   1.400       .  A
C674        H679   1.084       .  S
C675        C676   1.413       .  A
C676        N677   1.438       .  S
N677        H681   1.045       .  S
N677        H682   1.046       .  S
N680        H683   1.045       .  S
N680        H684   1.043       .  S
O685       Ni693   1.921       .  S
O685        C695   1.282       .  A
O686       Ni693   1.919       .  S
O686        C696   1.281       .  A
O687       Ni693   1.917       .  S
O687        C697   1.281       .  A
O688       Ni693   1.913       .  S
O688        C698   1.281       .  A
O689       Ni694   1.919       .  S
O689        C698   1.281       .  A
O690       Ni694   1.918       .  S
O690        C697   1.282       .  A
O691       Ni694   1.909       .  S
O691        C696   1.281       .  A
O692       Ni694   1.906       .  S
O692        C695   1.278       .  A
Ni693      Ni694   2.389       .  S
C695       C1317   1.473       .  S
C696       C1342   1.483       .  S
C697       C1359   1.479       .  S
C698       C1328   1.472       .  S
C699       C1303   1.491       .  S
C699        N704   1.363       .  A
N700        C701   1.361       .  A
C701       C1286   1.481       .  S
N702        C703   1.357       .  A
C703       C1272   1.485       .  S
C703        N704   1.361       .  A
C705       C1258   1.496       .  S
C705        N710   1.363   1_554  A
N706        C707   1.359       .  A
C707       C1244   1.477       .  S
N708        C709   1.354   1_554  A
C709       C1230   1.481       .  S
C709        N710   1.359       .  A
C711       C1219   1.488       .  S
C711        N716   1.364       .  A
N712        C713   1.359       .  A
C713       C1205   1.475       .  S
N714        C715   1.355       .  A
C715       C1191   1.480       .  S
C715        N716   1.360       .  A
C717       C1177   1.492       .  S
C717        N718   1.365       .  A
N718        C719   1.360       .  A
C719       C1356   1.480       .  S
C719        N720   1.353       .  A
C721       C1345   1.470       .  S
C721        N722   1.356       .  A
C723       C1300   1.489       .  S
C723        C724   1.414       .  A
C723        C728   1.405       .  A
C724       C1261   1.483       .  S
C724        C725   1.402   1_565  A
C725        C726   1.404       .  A
C725        H730   1.084       .  S
C726       C1216   1.490       .  S
C726        C727   1.417       .  A
C727       C1174   1.486       .  S
C727        C728   1.407   1_545  A
C728        H729   1.084       .  S
O731       Ni739   1.923       .  S
O731        C741   1.283       .  A
O732       Ni739   1.923       .  S
O732        C742   1.282       .  A
O733       Ni739   1.905       .  S
O733        C743   1.279       .  A
O734       Ni739   1.906       .  S
O734        C744   1.279       .  A
O735       Ni740   1.923       .  S
O735        C744   1.282       .  A
O736       Ni740   1.921       .  S
O736        C743   1.282       .  A
O737       Ni740   1.904       .  S
O737        C742   1.279       .  A
O738       Ni740   1.903       .  S
O738        C741   1.278       .  A
Ni739      Ni740   2.392       .  S
C741       C1146   1.473       .  S
C742       C1118   1.470       .  S
C743       C1132   1.473       .  S
C744       C1160   1.471       .  S
O745       Ni753   1.918       .  S
O745        C755   1.282       .  A
O746       Ni753   1.915       .  S
O746        C756   1.281       .  A
O747       Ni753   1.918       .  S
O747        C757   1.281       .  A
O748       Ni753   1.918       .  S
O748        C758   1.281       .  A
O749       Ni754   1.915       .  S
O749        C758   1.281       .  A
O750       Ni754   1.915       .  S
O750        C757   1.281       .  A
O751       Ni754   1.920       .  S
O751        C756   1.282       .  A
O752       Ni754   1.918       .  S
O752        C755   1.282       .  A
Ni753      Ni754   2.390       .  S
C755       C1104   1.481       .  S
C756       C1247   1.478       .  S
C757       C1233   1.473       .  S
C758       C1093   1.475       .  S
C759       C1076   1.490       .  S
C759        N760   1.364       .  A
N760        C761   1.359       .  A
C761       C1163   1.477       .  S
C761        N762   1.352       .  A
C763       C1149   1.474       .  S
C763        N764   1.356       .  A
C765       C1062   1.491       .  S
C765        N770   1.363       .  A
N766        C767   1.358       .  A
C767       C1107   1.473       .  S
N768        C769   1.354       .  A
C769       C1090   1.474       .  S
C769        N770   1.358       .  A
C771       C1048   1.488       .  S
C771        N776   1.365   1_554  A
N772        C773   1.355       .  A
C773       C1314   1.472       .  S
N774        C775   1.354   1_554  A
C775       C1331   1.483       .  S
C775        N776   1.360       .  A
C777       C1034   1.492       .  S
C777        N778   1.363   1_554  A
N778        C779   1.357       .  A
C779       C1006   1.474       .  S
C779        N780   1.353       .  A
C781       C1020   1.473       .  S
C781        N782   1.358       .  A
C783       C1079   1.482       .  S
C783        C784   1.414       .  A
C783        C788   1.404       .  A
C784       C1065   1.483       .  S
C784        C785   1.400       .  A
C785        C786   1.401   1_455  A
C785        H790   1.085   1_455  S
C786        C787   1.416       .  A
C787        C788   1.404   1_655  A
C788        H789   1.083       .  S
O791       Ni799   1.920       .  S
O791        C801   1.282       .  A
O792       Ni799   1.925       .  S
O792        C802   1.283       .  A
O793       Ni799   1.919       .  S
O793        C803   1.282       .  A
O794       Ni799   1.919       .  S
O794        C804   1.282       .  A
O795       Ni800   1.925       .  S
O795        C804   1.282       .  A
O796       Ni800   1.923       .  S
O796        C803   1.282       .  A
O797       Ni800   1.916       .  S
O797        C802   1.281       .  A
O798       Ni800   1.921       .  S
O798        C801   1.282       .  A
Ni799      Ni800   2.385       .  S
C801        C992   1.486       .  S
C802       C1202   1.487       .  S
C803       C1188   1.484       .  S
C804        C978   1.487       .  S
O805       Ni813   1.918       .  S
O805        C815   1.281       .  A
O806       Ni813   1.913       .  S
O806        C816   1.280       .  A
O807       Ni813   1.920       .  S
O807        C817   1.281       .  A
O808       Ni813   1.913       .  S
O808        C818   1.280       .  A
O809       Ni814   1.915       .  S
O809        C818   1.280       .  A
O810       Ni814   1.911       .  S
O810        C817   1.280       .  A
O811       Ni814   1.919       .  S
O811        C816   1.281       .  A
O812       Ni814   1.916       .  S
O812        C815   1.281       .  A
Ni813      Ni814   2.390       .  S
C815       C1009   1.480       .  S
C816        C950   1.475       .  S
C817        C967   1.469       .  S
C818       C1023   1.471       .  S
O819       Ni827   1.920       .  S
O819        C829   1.282       .  A
O820       Ni827   1.923       .  S
O820        C830   1.283       .  A
O821       Ni827   1.919       .  S
O821        C831   1.281       .  A
O822       Ni827   1.917       .  S
O822        C832   1.281       .  A
O823       Ni828   1.920       .  S
O823        C832   1.282       .  A
O824       Ni828   1.917       .  S
O824        C831   1.281       .  A
O825       Ni828   1.914       .  S
O825        C830   1.280       .  A
O826       Ni828   1.916       .  S
O826        C829   1.281       .  A
Ni827      Ni828   2.387       .  S
C829        C939   1.484       .  S
C830       C1289   1.480       .  S
C831       C1275   1.481       .  S
C832        C922   1.483       .  S
C833        C908   1.490       .  S
C833        N834   1.363   1_554  A
N834        C835   1.355       .  A
C835       C1135   1.473       .  S
C835        N836   1.350   1_556  A
C837       C1121   1.479       .  S
C837        N838   1.361       .  A
C839        C897   1.493       .  S
C839        N844   1.363       .  A
N840        C841   1.360       .  A
C841        C936   1.478       .  S
N842        C843   1.355       .  A
C843        C925   1.481       .  S
C843        N844   1.360       .  A
C845        C880   1.488       .  S
C845        N850   1.363       .  A
N846        C847   1.362       .  A
C847        C995   1.486       .  S
N848        C849   1.356       .  A
C849        C981   1.485       .  S
C849        N850   1.360       .  A
C851        C869   1.494       .  S
C851        N852   1.365   1_554  A
N852        C853   1.359       .  A
C853        C964   1.483       .  S
C853        N854   1.353   1_556  A
C855        C953   1.476       .  S
C855        N856   1.357       .  A
C857        C911   1.487   1_556  S
C857        C858   1.414       .  A
C857        C862   1.405       .  A
C858        C894   1.486       .  S
C858        C859   1.402       .  A
C859        C860   1.404       .  A
C859        H864   1.084       .  S
C860        C866   1.482       .  S
C860        C861   1.417       .  A
C861        C883   1.492       .  S
C861        C862   1.406       .  A
C862        H863   1.084   1_556  S
C865        C870   1.405       .  A
C865        H872   1.084       .  S
C866        C867   1.413       .  A
C867        C868   1.401       .  A
C867        N874   1.438       .  S
C868        C869   1.409   1_556  A
C868        H873   1.083       .  S
C870        N871   1.438       .  S
N871        H875   1.046       .  S
N871        H876   1.046       .  S
N874        H877   1.042       .  S
N874        H878   1.046       .  S
C879        C880   1.406       .  A
C879        C884   1.408       .  A
C879        H886   1.083       .  S
C881        C882   1.405       .  A
C881        N888   1.430       .  S
C882        H887   1.083       .  S
C883        C884   1.413       .  A
C884        N885   1.438       .  S
N885        H889   1.045       .  S
N885        H890   1.045       .  S
N888        H891   1.045       .  S
N888        H892   1.046       .  S
C893        C898   1.400       .  A
C893        H900   1.083       .  S
C894        C895   1.408   1_556  A
C895        C896   1.407       .  A
C895        N902   1.438       .  S
C896        C897   1.409   1_554  A
C896        H901   1.083       .  S
C898        N899   1.432       .  S
C907        C908   1.409   1_556  A
C907        C912   1.398       .  A
C907        H914   1.084       .  S
C909        C910   1.400       .  A
C909        N916   1.432       .  S
C910        H915   1.084       .  S
C911        C912   1.411   1_554  A
C912        N913   1.433       .  S
N913        H917   1.044       .  S
N913        H918   1.045       .  S
N916        H919   1.046       .  S
N916        H920   1.043       .  S
C921        C922   1.407       .  A
C921        C926   1.410       .  A
C921        H928   1.084       .  S
C922        C923   1.415       .  A
C923        C924   1.396       .  A
C923        N930   1.433       .  S
C924        C925   1.403       .  A
C924        H929   1.084       .  S
C925        C926   1.412       .  A
C926        N927   1.437       .  S
N927        H931   1.046       .  S
N927        H932   1.045       .  S
N930        H933   1.046       .  S
N930        H934   1.045       .  S
C935        C936   1.402       .  A
C935        C940   1.404       .  A
C935        H942   1.084       .  S
C936        C937   1.410       .  A
C937        C938   1.409       .  A
C937        N944   1.438       .  S
C938        C939   1.407       .  A
C938        H943   1.084       .  S
C939        C940   1.414       .  A
C940        N941   1.438       .  S
N941        H945   1.046       .  S
N941        H946   1.045       .  S
N944        H947   1.046       .  S
N944        H948   1.046       .  S
C949        C950   1.402       .  A
C949        C954   1.402       .  A
C949        H956   1.084       .  S
C950        C951   1.415       .  A
C951        C952   1.402       .  A
C951        N958   1.432       .  S
C952        C953   1.403       .  A
C952        H957   1.084       .  S
C953        C954   1.412       .  A
C954        N955   1.438       .  S
N955        H959   1.045       .  S
N955        H960   1.046       .  S
N958        H961   1.046       .  S
N958        H962   1.044       .  S
C963        C964   1.405       .  A
C963        C968   1.394       .  A
C963        H970   1.084       .  S
C964        C965   1.414       .  A
C965        C966   1.410       .  A
C965        N972   1.437       .  S
C966        C967   1.403       .  A
C966        H971   1.084       .  S
C967        C968   1.414       .  A
C968        N969   1.440       .  S
N969        H973   1.046       .  S
N969        H974   1.041       .  S
N972        H975   1.045       .  S
N972        H976   1.046       .  S
C977        C978   1.406       .  A
C977        C982   1.409       .  A
C977        H984   1.084       .  S
C978        C979   1.413       .  A
C979        C980   1.407       .  A
C979        N986   1.437       .  S
C980        C981   1.405       .  A
C980        H985   1.084       .  S
C981        C982   1.412       .  A
C982        N983   1.438       .  S
N983        H987   1.046       .  S
N983        H988   1.045       .  S
N986        H989   1.045       .  S
N986        H990   1.046       .  S
C991        C992   1.405       .  A
C991        C996   1.402       .  A
C991        H998   1.084       .  S
C992        C993   1.414       .  A
C993        C994   1.406       .  A
C993       N1000   1.438       .  S
C994        C995   1.405       .  A
C994        H999   1.084       .  S
C995        C996   1.415       .  A
C996        N997   1.431       .  S
N997       H1001   1.044       .  S
N997       H1002   1.045       .  S
N1000      H1003   1.046       .  S
N1000      H1004   1.045       .  S
C1005      C1006   1.402       .  A
C1005      C1010   1.408       .  A
C1005      H1012   1.084       .  S
C1006      C1007   1.409       .  A
C1007      C1008   1.402       .  A
C1007      N1014   1.438       .  S
C1008      C1009   1.403       .  A
C1008      H1013   1.083       .  S
C1009      C1010   1.415       .  A
C1010      N1011   1.438       .  S
N1011      H1015   1.046       .  S
N1011      H1016   1.045       .  S
N1014      H1017   1.045       .  S
N1014      H1018   1.046       .  S
C1019      C1020   1.403       .  A
C1019      C1024   1.401       .  A
C1019      H1026   1.084       .  S
C1020      C1021   1.410       .  A
C1021      C1022   1.408       .  A
C1021      N1028   1.438       .  S
C1022      C1023   1.404       .  A
C1022      H1027   1.084       .  S
C1023      C1024   1.409       .  A
C1024      N1025   1.438       .  S
N1025      H1029   1.046       .  S
N1025      H1030   1.045       .  S
N1028      H1031   1.046       .  S
N1028      H1032   1.045       .  S
C1033      C1038   1.404       .  A
C1033      H1040   1.083       .  S
C1034      C1035   1.418       .  A
C1035      C1036   1.408       .  A
C1036      C1037   1.402   1_554  A
C1036      H1041   1.084       .  S
C1047      C1048   1.406   1_556  A
C1047      C1052   1.400       .  A
C1047      H1054   1.084       .  S
C1049      C1050   1.403       .  A
C1049      N1056   1.438       .  S
C1050      H1055   1.083       .  S
C1051      C1052   1.414   1_554  A
C1052      N1053   1.433       .  S
N1053      H1057   1.044       .  S
N1053      H1058   1.044       .  S
N1056      H1059   1.046       .  S
N1056      H1060   1.045       .  S
C1061      C1062   1.408       .  A
C1061      C1066   1.401       .  A
C1061      H1068   1.083       .  S
C1063      C1064   1.405       .  A
C1063      N1070   1.438       .  S
C1064      H1069   1.084       .  S
C1065      C1066   1.415       .  A
C1066      N1067   1.438       .  S
N1067      H1071   1.046       .  S
N1067      H1072   1.043       .  S
N1070      H1073   1.046       .  S
N1070      H1074   1.045       .  S
C1075      C1080   1.400       .  A
C1075      H1082   1.084       .  S
C1076      C1077   1.417       .  A
C1077      C1078   1.405       .  A
C1077      N1084   1.438       .  S
C1078      C1079   1.401       .  A
C1078      H1083   1.084       .  S
C1080      N1081   1.438       .  S
N1081      H1085   1.046       .  S
N1081      H1086   1.043       .  S
N1084      H1087   1.046       .  S
N1084      H1088   1.046       .  S
C1089      C1090   1.402       .  A
C1089      C1094   1.396       .  A
C1089      H1096   1.084       .  S
C1090      C1091   1.410       .  A
C1091      C1092   1.407       .  A
C1091      N1098   1.438       .  S
C1092      C1093   1.405       .  A
C1092      H1097   1.084       .  S
C1093      C1094   1.413       .  A
C1094      N1095   1.432       .  S
N1095      H1099   1.045       .  S
N1095      H1100   1.044       .  S
N1098      H1101   1.046       .  S
N1098      H1102   1.046       .  S
C1103      C1104   1.405       .  A
C1103      C1108   1.397       .  A
C1103      H1110   1.084       .  S
C1104      C1105   1.421       .  A
C1105      C1106   1.404       .  A
C1105      N1112   1.439       .  S
C1106      C1107   1.400       .  A
C1106      H1111   1.084       .  S
C1107      C1108   1.412       .  A
C1108      N1109   1.433       .  S
N1109      H1113   1.044       .  S
N1109      H1114   1.046       .  S
N1112      H1115   1.042       .  S
N1112      H1116   1.046       .  S
C1117      C1118   1.405       .  A
C1117      C1122   1.411       .  A
C1117      H1124   1.084       .  S
C1118      C1119   1.416       .  A
C1119      C1120   1.393       .  A
C1119      N1126   1.442       .  S
C1120      C1121   1.403       .  A
C1120      H1125   1.084       .  S
C1121      C1122   1.412       .  A
C1122      N1123   1.437       .  S
N1123      H1127   1.045       .  S
N1123      H1128   1.045       .  S
N1126      H1129   1.041       .  S
N1126      H1130   1.046       .  S
C1131      C1132   1.402       .  A
C1131      C1136   1.396       .  A
C1131      H1138   1.085       .  S
C1132      C1133   1.419       .  A
C1133      C1134   1.406       .  A
C1133      N1140   1.439       .  S
C1134      C1135   1.403       .  A
C1134      H1139   1.084       .  S
C1135      C1136   1.408       .  A
C1136      N1137   1.433       .  S
N1137      H1141   1.046       .  S
N1137      H1142   1.046       .  S
N1140      H1143   1.042       .  S
N1140      H1144   1.046       .  S
C1145      C1146   1.403       .  A
C1145      C1150   1.400       .  A
C1145      H1152   1.084       .  S
C1146      C1147   1.418       .  A
C1147      C1148   1.403       .  A
C1147      N1154   1.439       .  S
C1148      C1149   1.402       .  A
C1148      H1153   1.084       .  S
C1149      C1150   1.410       .  A
C1150      N1151   1.439       .  S
N1151      H1155   1.046       .  S
N1151      H1156   1.046       .  S
N1154      H1157   1.042       .  S
N1154      H1158   1.046       .  S
C1159      C1160   1.400       .  A
C1159      C1164   1.399       .  A
C1159      H1166   1.085       .  S
C1160      C1161   1.417       .  A
C1161      C1162   1.406       .  A
C1161      N1168   1.439       .  S
C1162      C1163   1.404       .  A
C1162      H1167   1.084       .  S
C1163      C1164   1.413       .  A
C1164      N1165   1.439       .  S
N1165      H1169   1.046       .  S
N1165      H1170   1.046       .  S
N1168      H1171   1.043       .  S
N1168      H1172   1.046       .  S
C1173      C1178   1.408       .  A
C1173      H1180   1.084       .  S
C1174      C1175   1.416       .  A
C1175      C1176   1.401       .  A
C1175      N1182   1.438       .  S
C1176      C1177   1.406       .  A
C1176      H1181   1.083       .  S
C1178      N1179   1.438       .  S
N1179      H1183   1.046       .  S
N1179      H1184   1.046       .  S
N1182      H1185   1.043       .  S
N1182      H1186   1.046       .  S
C1187      C1188   1.403       .  A
C1187      C1192   1.398       .  A
C1187      H1194   1.084       .  S
C1188      C1189   1.414       .  A
C1189      C1190   1.411       .  A
C1189      N1196   1.437       .  S
C1190      C1191   1.403       .  A
C1190      H1195   1.084       .  S
C1191      C1192   1.415       .  A
C1192      N1193   1.433       .  S
N1193      H1197   1.044       .  S
N1193      H1198   1.045       .  S
N1196      H1199   1.046       .  S
N1196      H1200   1.045       .  S
C1201      C1202   1.407       .  A
C1201      C1206   1.406       .  A
C1201      H1208   1.084       .  S
C1202      C1203   1.415       .  A
C1203      C1204   1.404       .  A
C1203      N1210   1.438       .  S
C1204      C1205   1.401       .  A
C1204      H1209   1.084       .  S
C1205      C1206   1.416       .  A
C1206      N1207   1.438       .  S
N1207      H1211   1.045       .  S
N1207      H1212   1.043       .  S
N1210      H1213   1.045       .  S
N1210      H1214   1.045       .  S
C1215      C1220   1.406       .  A
C1215      H1222   1.083       .  S
C1216      C1217   1.408       .  A
C1217      C1218   1.405       .  A
C1217      N1224   1.432       .  S
C1218      C1219   1.406       .  A
C1218      H1223   1.084       .  S
C1220      N1221   1.432       .  S
N1221      H1225   1.045       .  S
N1221      H1226   1.046       .  S
N1224      H1227   1.045       .  S
N1224      H1228   1.046       .  S
C1229      C1230   1.404       .  A
C1229      C1234   1.398       .  A
C1229      H1236   1.084       .  S
C1230      C1231   1.412       .  A
C1231      C1232   1.409       .  A
C1231      N1238   1.437       .  S
C1232      C1233   1.404       .  A
C1232      H1237   1.084       .  S
C1233      C1234   1.417       .  A
C1234      N1235   1.440       .  S
N1235      H1239   1.046       .  S
N1235      H1240   1.041       .  S
N1238      H1241   1.045       .  S
N1238      H1242   1.046       .  S
C1243      C1244   1.403       .  A
C1243      C1248   1.406       .  A
C1243      H1250   1.084       .  S
C1244      C1245   1.415       .  A
C1245      C1246   1.395       .  A
C1245      N1252   1.433       .  S
C1246      C1247   1.402       .  A
C1246      H1251   1.083       .  S
C1247      C1248   1.419       .  A
C1248      N1249   1.439       .  S
N1249      H1253   1.045       .  S
N1249      H1254   1.043       .  S
N1252      H1255   1.045       .  S
N1252      H1256   1.045       .  S
C1257      C1262   1.402       .  A
C1257      H1264   1.083       .  S
C1258      C1259   1.417   1_554  A
C1259      C1260   1.404       .  A
C1259      N1266   1.432       .  S
C1260      H1265   1.084       .  S
C1261      C1262   1.415       .  A
C1262      N1263   1.438       .  S
N1263      H1267   1.045       .  S
N1263      H1268   1.043       .  S
N1266      H1269   1.046       .  S
N1266      H1270   1.045       .  S
C1271      C1272   1.405       .  A
C1271      C1276   1.404       .  A
C1271      H1278   1.084       .  S
C1272      C1273   1.414       .  A
C1273      C1274   1.408       .  A
C1273      N1280   1.438       .  S
C1274      C1275   1.405       .  A
C1274      H1279   1.084       .  S
C1275      C1276   1.412       .  A
C1276      N1277   1.438       .  S
N1277      H1281   1.045       .  S
N1277      H1282   1.045       .  S
N1280      H1283   1.046       .  S
N1280      H1284   1.045       .  S
C1285      C1286   1.403       .  A
C1285      C1290   1.409       .  A
C1285      H1292   1.084       .  S
C1286      C1287   1.412       .  A
C1287      C1288   1.401       .  A
C1287      N1294   1.433       .  S
C1288      C1289   1.401       .  A
C1288      H1293   1.084       .  S
C1289      C1290   1.414       .  A
C1290      N1291   1.438       .  S
N1291      H1295   1.046       .  S
N1291      H1296   1.046       .  S
N1294      H1297   1.046       .  S
N1294      H1298   1.046       .  S
C1299      C1304   1.405       .  A
C1299      H1306   1.084       .  S
C1300      C1301   1.407       .  A
C1301      C1302   1.406       .  A
C1301      N1308   1.432       .  S
C1302      C1303   1.408       .  A
C1302      H1307   1.084       .  S
C1304      N1305   1.432       .  S
N1305      H1309   1.046       .  S
N1305      H1310   1.046       .  S
N1308      H1311   1.045       .  S
N1308      H1312   1.046       .  S
C1313      C1314   1.401       .  A
C1313      C1318   1.399       .  A
C1313      H1320   1.084       .  S
C1314      C1315   1.410       .  A
C1315      C1316   1.408       .  A
C1315      N1322   1.437       .  S
C1316      C1317   1.404       .  A
C1316      H1321   1.084       .  S
C1317      C1318   1.411       .  A
C1318      N1319   1.439       .  S
N1319      H1323   1.046       .  S
N1319      H1324   1.045       .  S
N1322      H1325   1.046       .  S
N1322      H1326   1.046       .  S
C1327      C1328   1.405       .  A
C1327      C1332   1.403       .  A
C1327      H1334   1.084       .  S
C1328      C1329   1.416       .  A
C1329      C1330   1.397       .  A
C1329      N1336   1.441       .  S
C1330      C1331   1.405       .  A
C1330      H1335   1.084       .  S
C1331      C1332   1.415       .  A
C1332      N1333   1.432       .  S
N1333      H1337   1.045       .  S
N1333      H1338   1.046       .  S
N1336      H1339   1.041       .  S
N1336      H1340   1.046       .  S
C1341      C1342   1.404       .  A
C1341      C1346   1.395       .  A
C1341      H1348   1.084       .  S
C1342      C1343   1.415       .  A
C1343      C1344   1.408       .  A
C1343      N1350   1.437       .  S
C1344      C1345   1.402       .  A
C1344      H1349   1.084       .  S
C1345      C1346   1.414       .  A
C1346      N1347   1.438       .  S
N1347      H1351   1.045       .  S
N1347      H1352   1.043       .  S
N1350      H1353   1.046       .  S
N1350      H1354   1.045       .  S
C1355      C1356   1.404       .  A
C1355      C1360   1.408       .  A
C1355      H1362   1.084       .  S
C1356      C1357   1.417       .  A
C1357      C1358   1.397       .  A
C1357      N1364   1.432       .  S
C1358      C1359   1.401       .  A
C1358      H1363   1.084       .  S
C1359      C1360   1.413       .  A
C1360      N1361   1.437       .  S
N1361      H1365   1.045       .  S
N1361      H1366   1.046       .  S
N1364      H1367   1.046       .  S
N1364      H1368   1.043       .  S
