geometry optimzed in LAMMPS
_audit_creation_date              2020-11-30 
_audit_creation_method            'lammps2cif' 
_symmetry_space_group_name_H-M    'P1' 
_symmetry_Int_Tables_number       1 
_symmetry_cell_setting            triclinic 
loop_ 
_symmetry_equiv_pos_as_xyz 
  x,y,z 
_cell_length_a                    55.60714742 
_cell_length_b                    55.370990505512225 
_cell_length_c                    55.56257910054075 
_cell_angle_alpha                 90.2153743927513 
_cell_angle_beta                  90.35141061657636 
_cell_angle_gamma                 90.17948572002871 
loop_ 
_atom_site_label 
_atom_site_type_symbol 
_atom_site_fract_x 
_atom_site_fract_y 
_atom_site_fract_z 
_atom_site_charge 
O1          O  0.50320894  0.47047169  0.43988389    -0.78100
C2          C  0.44253885  0.52483049  0.44905847     0.83000
O3          O  0.53083791  0.53185799  0.49349837    -0.79200
O4          O  0.44712822  0.52328313  0.52302761    -0.80700
O5          O  0.45908969  0.44103932  0.51063014    -0.80500
O6          O  0.50351790  0.44061468  0.46630309    -0.79100
Zn7        Zn  0.49059918  0.49943847  0.45805550     1.55700
O8          O  0.43170817  0.47011107  0.51101834    -0.80500
Cd9        Cd  0.48892350  0.45717074  0.49593747     1.59700
Cd10       Cd  0.50593102  0.51158159  0.51418148     1.59600
O11         O  0.51423273  0.45157058  0.52177378    -0.80500
O12         O  0.48452295  0.49229604  0.49124280    -1.91000
Cd13       Cd  0.44990976  0.49877251  0.49637178     1.59900
O14         O  0.52551986  0.48746192  0.53649654    -0.80500
O15         O  0.43334440  0.51590391  0.46800103    -0.79100
C16         C  0.53278342  0.53237096  0.47054191     0.83400
C17         C  0.50954222  0.44926638  0.44599806     0.83100
O18         O  0.46378679  0.51919297  0.44271047    -0.78100
C19         C  0.43878289  0.44925602  0.51726295     0.83900
O20         O  0.51850463  0.52093113  0.45679776    -0.78200
C21         C  0.52656111  0.46435117  0.53628155     0.84000
C22         C  0.46083800  0.53534000  0.53684222     0.84300
O23         O  0.48382727  0.53398951  0.53586593    -0.80600
O24         O  0.47560294  0.19487812  0.21389290    -0.78100
C25         C  0.53965101  0.20607677  0.26356391     0.83000
O26         O  0.45527974  0.24925223  0.27949134    -0.79200
O27         O  0.53596535  0.27952905  0.26105091    -0.80700
O28         O  0.51438228  0.26777028  0.18099643    -0.80500
O29         O  0.47124791  0.22268881  0.18545669    -0.79100
Zn30       Zn  0.48978667  0.21379740  0.24187976     1.55700
O31         O  0.54560250  0.26601610  0.20597375    -0.80500
Cd32       Cd  0.48709797  0.25244112  0.20054130     1.59700
Cd33       Cd  0.47688942  0.26947893  0.25626164     1.59600
O34         O  0.46189472  0.27838050  0.19880837    -0.80500
O35         O  0.49557111  0.24702804  0.23444316    -1.91000
Cd36       Cd  0.53056352  0.25261428  0.23693881     1.59900
O37         O  0.45605247  0.29342622  0.23561731    -0.80500
O38         O  0.54839867  0.22439547  0.25300126    -0.79100
C39         C  0.45306526  0.22631911  0.28019760     0.83400
C40         C  0.46738436  0.20159349  0.19347724     0.83100
O41         O  0.51801223  0.19939776  0.25962464    -0.78100
C42         C  0.53603936  0.27297882  0.18629399     0.83900
O43         O  0.46463187  0.21241663  0.26634046    -0.78200
C44         C  0.45222250  0.29348233  0.21291367     0.84000
C45         C  0.52348909  0.29141954  0.27596946     0.84300
O46         O  0.50069610  0.28948389  0.27729165    -0.80600
C47         C  0.78777871  0.76477515  0.78819842     0.80600
N48         N  0.76810530  0.77455810  0.79895288    -0.77700
C49         C  0.75559706  0.79296898  0.78860869     0.83100
N50         N  0.76335890  0.80178061  0.76723032    -0.77600
C51         C  0.78250453  0.79185988  0.75583720     0.83200
N52         N  0.79461304  0.77353056  0.76652074    -0.79300
C53         C  0.76513360  0.94912532  0.95100040     0.80600
N54         N  0.77587910  0.96960816  0.94301600    -0.77700
C55         C  0.79478315  0.97983658  0.95498781     0.83100
N56         N  0.80284872  0.96918948  0.97545518    -0.77600
C57         C  0.79260369  0.94850918  0.98377718     0.83200
N58         N  0.77396595  0.93856788  0.97128050    -0.79300
C59         C  0.95114130  0.79376376  0.98769532     0.80600
N60         N  0.94021008  0.77527482  0.97560696    -0.77700
C61         C  0.94987077  0.76620777  0.95499407     0.83100
N62         N  0.97082833  0.77597612  0.94685454    -0.77600
C63         C  0.98198320  0.79453111  0.95860486     0.83200
N64         N  0.97163857  0.80343925  0.97874306    -0.79300
C65         C  0.94499366  0.94224068  0.77182451     0.80600
N66         N  0.96583754  0.93367127  0.78154319    -0.77700
C67         C  0.97671832  0.94521552  0.80043276     0.83100
N68         N  0.96626530  0.96548830  0.80948161    -0.77600
C69         C  0.94578483  0.97467224  0.79958982     0.83200
N70         N  0.93523186  0.96277578  0.78089597    -0.79300
N71         N  0.06807505  0.87102656  0.88057722    -0.36200
N72         N  0.10674848  0.84895069  0.90886437    -0.56800
N73         N  0.14132024  0.87642490  0.88099885    -0.36200
N74         N  0.10257300  0.90074416  0.85511155    -0.56800
C75         C  0.05568788  0.86095492  0.89888781     0.27400
C76         C  0.05344292  0.88739587  0.86990907     0.27400
C77         C  0.15591303  0.86680371  0.89789482     0.27400
C78         C  0.15364557  0.89454739  0.87048333     0.27400
C79         C  0.08810801  0.83574168  0.91711674     0.36000
C80         C  0.12704301  0.83798198  0.91655903     0.36000
C81         C  0.08279589  0.90560309  0.84174940     0.36000
C82         C  0.12162664  0.90891386  0.84252105     0.36000
C83         C  0.03288043  0.87101172  0.89981808    -0.21500
C84         C  0.03146942  0.88766541  0.88153306    -0.21500
C85         C  0.17787180  0.87880600  0.89793095    -0.21500
C86         C  0.17639543  0.89636031  0.88071001    -0.21500
C87         C  0.09656386  0.81647062  0.93057795    -0.22500
C88         C  0.12128764  0.81792012  0.93026361    -0.22500
C89         C  0.08928625  0.91721092  0.82070472    -0.22500
C90         C  0.11393009  0.91931230  0.82119630    -0.22500
C91         C  0.06361005  0.84158116  0.91352218    -0.17900
C92         C  0.05891754  0.90102846  0.84909226    -0.17900
C93         C  0.14572119  0.90830796  0.85067948    -0.17900
C94         C  0.15061694  0.84654799  0.91225076    -0.17900
H95         H  0.01858824  0.86654458  0.91218301     0.15000
H96         H  0.01593344  0.89854696  0.87712039     0.15000
H97         H  0.19353924  0.87517422  0.90895639     0.15000
H98         H  0.19066243  0.90876969  0.87596991     0.15000
H99         H  0.08603519  0.80291977  0.93979098     0.13300
H100        H  0.13359948  0.80571136  0.93917597     0.13300
H101        H  0.07748725  0.92365890  0.80657975     0.13300
H102        H  0.12491413  0.92773259  0.80755478     0.13300
H103        H  0.08493237  0.86573045  0.87458253     0.26600
H104        H  0.12454368  0.86991719  0.87582896     0.26600
N105        N  0.86983370  0.87136095  0.07232963    -0.36200
N106        N  0.84258053  0.89814238  0.10866675    -0.56800
N107        N  0.87160103  0.87577377  0.14588699    -0.36200
N108        N  0.89605182  0.84611329  0.10959861    -0.56800
C109        C  0.85166054  0.88013730  0.05876989     0.27400
C110        C  0.88114654  0.85434501  0.05915084     0.27400
C111        C  0.85612659  0.88843724  0.15962918     0.27400
C112        C  0.88209896  0.85921237  0.16019632     0.27400
C113        C  0.83392614  0.90878000  0.08860465     0.36000
C114        C  0.83632710  0.91246346  0.12734443     0.36000
C115        C  0.90894536  0.83846272  0.09051786     0.36000
C116        C  0.90768154  0.83840097  0.12951600     0.36000
C117        C  0.85141747  0.86856767  0.03656624    -0.21500
C118        C  0.87003871  0.85228091  0.03680577    -0.21500
C119        C  0.85735661  0.88033974  0.18317973    -0.21500
C120        C  0.87353718  0.86178803  0.18350908    -0.21500
C121        C  0.82161523  0.92967282  0.09461145    -0.22500
C122        C  0.82318612  0.93202812  0.11918048    -0.22500
C123        C  0.92884215  0.82558836  0.09838101    -0.22500
C124        C  0.92787935  0.82531984  0.12311239    -0.22500
C125        C  0.83681586  0.89987305  0.06492550    -0.17900
C126        C  0.90209665  0.84170305  0.06615213    -0.17900
C127        C  0.89995153  0.84243372  0.15337203    -0.17900
C128        C  0.84115821  0.90740865  0.15178818    -0.17900
H129        H  0.83944743  0.87196269  0.02152910     0.15000
H130        H  0.87513020  0.84060421  0.02203587     0.15000
H131        H  0.84742666  0.88690371  0.19855202     0.15000
H132        H  0.87848806  0.85146035  0.19926710     0.15000
H133        H  0.81260032  0.94203758  0.08254128     0.13300
H134        H  0.81546707  0.94642294  0.12983100     0.13300
H135        H  0.94243565  0.81697620  0.08748363     0.13300
H136        H  0.94063930  0.81661837  0.13501547     0.13300
H137        H  0.87545795  0.87804136  0.08902034     0.26600
H138        H  0.87547868  0.87890327  0.12784254     0.26600
N139        N  0.86795320  0.86830904  0.67726672    -0.36200
N140        N  0.84197638  0.84559611  0.63732741    -0.56800
N141        N  0.86689491  0.87744149  0.60447818    -0.36200
N142        N  0.89523946  0.89781052  0.64434807    -0.56800
C143        C  0.85743904  0.84908474  0.68782268     0.27400
C144        C  0.88679305  0.87497994  0.69132911     0.27400
C145        C  0.85694629  0.86156916  0.58869108     0.27400
C146        C  0.88378857  0.89003295  0.59246865     0.27400
C147        C  0.82820500  0.83814604  0.65581251     0.36000
C148        C  0.82918770  0.84126690  0.61701071     0.36000
C149        C  0.90270889  0.90762604  0.66545805     0.36000
C150        C  0.90107909  0.91362912  0.62684770     0.36000
C151        C  0.86977798  0.84325934  0.70874490    -0.21500
C152        C  0.88841856  0.85958506  0.71091860    -0.21500
C153        C  0.86744829  0.86430529  0.56631726    -0.21500
C154        C  0.88442422  0.88221225  0.56868951    -0.21500
C155        C  0.80662112  0.82883082  0.64720406    -0.22500
C156        C  0.80737935  0.83054037  0.62254190    -0.22500
C157        C  0.91356102  0.92978262  0.66134044    -0.22500
C158        C  0.91267365  0.93351115  0.63682428    -0.22500
C159        C  0.83566292  0.83833234  0.68015550    -0.17900
C160        C  0.90102039  0.89594063  0.68806075    -0.17900
C161        C  0.89754837  0.90944171  0.60191020    -0.17900
C162        C  0.83754477  0.84586057  0.59352345    -0.17900
H163        H  0.86544665  0.82906204  0.72135235     0.15000
H164        H  0.90133269  0.86042772  0.72555603     0.15000
H165        H  0.86309029  0.85466176  0.54987305     0.15000
H166        H  0.89565486  0.88896317  0.55435276     0.15000
H167        H  0.79199075  0.82130849  0.65754486     0.13300
H168        H  0.79343723  0.82470181  0.61012986     0.13300
H169        H  0.92150149  0.94185395  0.67455093     0.13300
H170        H  0.91982274  0.94900059  0.62739972     0.13300
H171        H  0.86121625  0.87759631  0.66249148     0.26600
H172        H  0.86152676  0.88064044  0.62203289     0.26600
N173        N  0.87354724  0.68238804  0.86834116    -0.36200
N174        N  0.90430265  0.64530081  0.88778675    -0.56800
N175        N  0.87153971  0.60815752  0.86647832    -0.36200
N176        N  0.84196827  0.64575364  0.84572799    -0.56800
C177        C  0.88913754  0.69650885  0.88092980     0.27400
C178        C  0.85885912  0.69715683  0.85575852     0.27400
C179        C  0.89300953  0.59695820  0.86894411     0.27400
C180        C  0.85954474  0.59669370  0.84844411     0.27400
C181        C  0.91216184  0.66384953  0.90164936     0.36000
C182        C  0.91298501  0.62486222  0.89763456     0.36000
C183        C  0.83403535  0.66567795  0.83414214     0.36000
C184        C  0.83116741  0.62649664  0.83503074     0.36000
C185        C  0.88429031  0.72059228  0.87616167    -0.21500
C186        C  0.86520608  0.72100536  0.86039310    -0.21500
C187        C  0.89491644  0.57865456  0.85203442    -0.21500
C188        C  0.87409294  0.57914110  0.83846645    -0.21500
C189        C  0.92630471  0.65514664  0.92031533    -0.22500
C190        C  0.92667100  0.63037737  0.91788864    -0.22500
C191        C  0.81870032  0.65903938  0.81552066    -0.22500
C192        C  0.81724531  0.63435395  0.81577649    -0.22500
C193        C  0.90697465  0.68851586  0.89742739    -0.17900
C194        C  0.84001666  0.68993338  0.83996234    -0.17900
C195        C  0.83576562  0.60191722  0.84104675    -0.17900
C196        C  0.90995211  0.60165295  0.88736728    -0.17900
H197        H  0.89343733  0.73632759  0.88339940     0.15000
H198        H  0.85694332  0.73714093  0.85322240     0.15000
H199        H  0.90992331  0.56653039  0.84951844     0.15000
H200        H  0.87010614  0.56797182  0.82292980     0.15000
H201        H  0.93533811  0.66553899  0.93423250     0.13300
H202        H  0.93625848  0.61792483  0.92941921     0.13300
H203        H  0.81000577  0.67073893  0.80257902     0.13300
H204        H  0.80804253  0.62356281  0.80230523     0.13300
H205        H  0.87258157  0.66377054  0.86853473     0.26600
H206        H  0.86474809  0.62168008  0.87764403     0.26600
N207        N  0.67474071  0.87046735  0.87532637    -0.36200
N208        N  0.63719998  0.84747532  0.84703239    -0.56800
N209        N  0.60132906  0.87474096  0.87375579    -0.36200
N210        N  0.63894839  0.89988139  0.90005625    -0.56800
C211        C  0.68769212  0.85969258  0.85780622     0.27400
C212        C  0.68875398  0.88796514  0.88504930     0.27400
C213        C  0.58818576  0.86642224  0.85493304     0.27400
C214        C  0.58883779  0.89316963  0.88358062     0.27400
C215        C  0.65580265  0.83319919  0.84083946     0.36000
C216        C  0.61706239  0.83622476  0.83917631     0.36000
C217        C  0.65880145  0.90705906  0.91231480     0.36000
C218        C  0.61977316  0.90860529  0.91213909     0.36000
C219        C  0.71020673  0.87041016  0.85640897    -0.21500
C220        C  0.71091281  0.88821866  0.87366937    -0.21500
C221        C  0.56711948  0.87962205  0.85286268    -0.21500
C222        C  0.56747682  0.89642792  0.87102153    -0.21500
C223        C  0.64748901  0.81282696  0.82879851    -0.22500
C224        C  0.62284349  0.81471949  0.82780009    -0.22500
C225        C  0.65224340  0.92077111  0.93213447    -0.22500
C226        C  0.62748141  0.92172480  0.93203826    -0.22500
C227        C  0.68020558  0.83952822  0.84403571    -0.17900
C228        C  0.68272955  0.90263074  0.90495409    -0.17900
C229        C  0.59559313  0.90639900  0.90427572    -0.17900
C230        C  0.59383553  0.84623357  0.84051695    -0.17900
H231        H  0.72474980  0.86564277  0.84445169     0.15000
H232        H  0.72613534  0.89984977  0.87756862     0.15000
H233        H  0.55282574  0.87724571  0.83974715     0.15000
H234        H  0.55352606  0.90952462  0.87457295     0.15000
H235        H  0.65810263  0.79837378  0.82117680     0.13300
H236        H  0.61062511  0.80204797  0.81922186     0.13300
H237        H  0.66407111  0.92945893  0.94508705     0.13300
H238        H  0.61644289  0.93134065  0.94485246     0.13300
H239        H  0.65793365  0.86512155  0.88138686     0.26600
H240        H  0.61711111  0.86729083  0.88044182     0.26600
N241        N  0.86817620  0.06657261  0.87639538    -0.36200
N242        N  0.89380737  0.10062357  0.84597175    -0.56800
N243        N  0.87073015  0.13999289  0.87198913    -0.36200
N244        N  0.84272468  0.10605990  0.90026897    -0.56800
C245        C  0.87737593  0.05168854  0.85937223     0.27400
C246        C  0.84988238  0.05463123  0.88715305     0.27400
C247        C  0.88086483  0.15227871  0.85367965     0.27400
C248        C  0.85475829  0.15502143  0.88243370     0.27400
C249        C  0.90581357  0.08028330  0.83997742     0.36000
C250        C  0.90638707  0.11938117  0.83681071     0.36000
C251        C  0.83516161  0.08751693  0.91403872     0.36000
C252        C  0.83725472  0.12660123  0.91222106     0.36000
C253        C  0.86468137  0.03009681  0.85920651    -0.21500
C254        C  0.84745127  0.03189103  0.87680996    -0.21500
C255        C  0.87135250  0.17543946  0.85275092    -0.21500
C256        C  0.85486821  0.17710321  0.87075945    -0.21500
C257        C  0.92600373  0.08616378  0.82665647    -0.22500
C258        C  0.92614254  0.11089560  0.82433309    -0.22500
C259        C  0.82455115  0.09631387  0.93481050    -0.22500
C260        C  0.82585547  0.12114794  0.93363592    -0.22500
C261        C  0.89792963  0.05647196  0.84513575    -0.17900
C262        C  0.83652480  0.06291373  0.90724655    -0.17900
C263        C  0.84110314  0.15010069  0.90315565    -0.17900
C264        C  0.89980076  0.14397302  0.83899334    -0.17900
H265        H  0.86788089  0.01446211  0.84793505     0.15000
H266        H  0.83476173  0.01789526  0.88166304     0.15000
H267        H  0.87598781  0.19002416  0.84075447     0.15000
H268        H  0.84442798  0.19301380  0.87497850     0.15000
H269        H  0.93913445  0.07393291  0.81914179     0.13300
H270        H  0.93938184  0.12143554  0.81473169     0.13300
H271        H  0.81639970  0.08593958  0.94909369     0.13300
H272        H  0.81890272  0.13374260  0.94679581     0.13300
H273        H  0.87517729  0.08316916  0.88161443     0.26600
H274        H  0.87558177  0.12302924  0.87801697     0.26600
O275        O  0.25821503  0.55441363  0.21614356    -0.78100
C276        C  0.19046141  0.54557385  0.26310019     0.83000
O277        O  0.27809967  0.50633924  0.28197207    -0.79200
O278        O  0.19738064  0.47447863  0.26851159    -0.80700
O279        O  0.21583045  0.48252037  0.18436736    -0.80500
O280        O  0.25820870  0.52644890  0.18764608    -0.79100
Zn281      Zn  0.24092692  0.53822005  0.24367681     1.55700
O282        O  0.18807072  0.47739631  0.21208372    -0.80500
Cd283      Cd  0.24236696  0.49837808  0.20406503     1.59700
Cd284      Cd  0.25624424  0.48421072  0.26008154     1.59600
O285        O  0.26732448  0.47268296  0.20248556    -0.80500
O286        O  0.23568247  0.50467539  0.23803194    -1.91000
Cd287      Cd  0.20117900  0.49737308  0.24088132     1.59900
O288        O  0.27727391  0.46058798  0.23949913    -0.80500
O289        O  0.18193393  0.52643413  0.25341307    -0.79100
C290        C  0.27762551  0.52934596  0.28346062     0.83400
C291        C  0.26555664  0.54645502  0.19588470     0.83100
O292        O  0.21173372  0.55285267  0.25880411    -0.78100
C293        C  0.19668469  0.47250154  0.19141050     0.83900
O294        O  0.26439858  0.54199304  0.26988611    -0.78200
C295        C  0.27906894  0.45927536  0.21661982     0.84000
C296        C  0.21081679  0.46318948  0.28305426     0.84300
O297        O  0.23371585  0.46463297  0.28269615    -0.80600
O298        O  0.25889219  0.19342980  0.50826991    -0.78100
C299        C  0.19066082  0.20744181  0.46570178     0.83000
O300        O  0.28313424  0.25147188  0.45892673    -0.79200
O301        O  0.20334367  0.28095727  0.46528582    -0.80700
O302        O  0.21207208  0.26077623  0.55103203    -0.80500
O303        O  0.25484944  0.21178603  0.54345200    -0.79100
Zn304      Zn  0.24164201  0.21455422  0.48461487     1.55700
O305        O  0.18892074  0.27187216  0.52034144    -0.80500
Cd306      Cd  0.24066618  0.24474637  0.53260593     1.59700
Cd307      Cd  0.26012726  0.27005219  0.48237079     1.59600
O308        O  0.26734848  0.26775498  0.54221473    -0.80500
O309        O  0.23690981  0.24619387  0.49713184    -1.91000
Cd310      Cd  0.20321770  0.25487539  0.49053460     1.59900
O311        O  0.28014244  0.28734459  0.50973549    -0.80500
O312        O  0.18319784  0.22740189  0.47429565    -0.79100
C313        C  0.28037226  0.23016362  0.45042691     0.83400
C314        C  0.26365882  0.19478519  0.53060701     0.83100
O315        O  0.21201209  0.20032496  0.46995583    -0.78100
C316        C  0.19473281  0.27328342  0.54257105     0.83900
O317        O  0.26416388  0.21601149  0.45786657    -0.78200
C318        C  0.28076967  0.28330996  0.53239192     0.84000
C319        C  0.21841183  0.29570744  0.45656628     0.84300
O320        O  0.24078530  0.29537756  0.46197347    -0.80600
O321        O  0.50966894  0.78182916  0.79407295    -0.78100
C322        C  0.44562969  0.73110863  0.78277566     0.83000
O323        O  0.53808184  0.71557297  0.75062187    -0.79200
O324        O  0.45942990  0.72486705  0.71045755    -0.80700
O325        O  0.47474560  0.80662657  0.71596538    -0.80500
O326        O  0.51129818  0.81032854  0.76604141    -0.79100
Zn327      Zn  0.49598912  0.75252350  0.77765342     1.55700
O328        O  0.44487829  0.78016161  0.71733799    -0.80500
Cd329      Cd  0.50136024  0.79118999  0.73626451     1.59700
Cd330      Cd  0.51745092  0.73542146  0.72536232     1.59600
O331        O  0.53013160  0.79385387  0.71424443    -0.80500
O332        O  0.49444291  0.75709193  0.74360944    -1.91000
Cd333      Cd  0.46037570  0.75180693  0.73482182     1.59900
O334        O  0.53976843  0.75651367  0.70264625    -0.80500
O335        O  0.43956722  0.73841251  0.76202681    -0.79100
C336        C  0.53563310  0.71529889  0.77352154     0.83400
C337        C  0.51608574  0.80275005  0.78710243     0.83100
O338        O  0.46617115  0.73665381  0.79158135    -0.78100
C339        C  0.45393618  0.79955427  0.70935483     0.83900
O340        O  0.52052998  0.72850775  0.78415073    -0.78200
C341        C  0.54240760  0.77947401  0.70150455     0.84000
C342        C  0.47405362  0.71047213  0.70055588     0.84300
O343        O  0.49678894  0.71139711  0.70414909    -0.80600
O344        O  0.20096018  0.73200384  0.97842585    -0.78100
C345        C  0.20310711  0.77989393  0.04481367     0.83000
O346        O  0.24889914  0.79801519  0.96150693    -0.79200
O347        O  0.27947040  0.78744766  0.04012044    -0.80700
O348        O  0.26962480  0.70351853  0.02771446    -0.80500
O349        O  0.22646071  0.70179131  0.98216169    -0.79100
Zn350      Zn  0.21592270  0.75899071  0.99686959     1.55700
O351        O  0.27164685  0.73315640  0.05475887    -0.80500
Cd352      Cd  0.25466853  0.71962935  0.99832469     1.59700
Cd353      Cd  0.27051450  0.77470950  0.98189800     1.59600
O354        O  0.27970416  0.71556019  0.97260417    -0.80500
O355        O  0.24910621  0.75436216  0.00327848    -1.91000
Cd356      Cd  0.25425803  0.76148076  0.03768723     1.59900
O357        O  0.28959914  0.75189103  0.95831594    -0.80500
O358        O  0.22424025  0.77705079  0.05342870    -0.79100
C359        C  0.22599597  0.79930729  0.96179429     0.83400
C360        C  0.20761114  0.71087052  0.97283778     0.83100
O361        O  0.19722757  0.77051524  0.02479202    -0.78100
C362        C  0.27758068  0.71213171  0.04742555     0.83900
O363        O  0.21317974  0.78567288  0.97465779    -0.78200
C364        C  0.29095834  0.72882408  0.95794696     0.84000
C365        C  0.29406988  0.79826108  0.02642909     0.84300
O366        O  0.29404732  0.79541345  0.00357214    -0.80600
O367        O  0.02129492  0.49402384  0.04717919    -0.78100
C368        C  0.97630098  0.56362982  0.03930102     0.83000
O369        O  0.95075646  0.48004540  0.00373371    -0.79200
O370        O  0.97139529  0.55175020  0.96072349    -0.80700
O371        O  0.05130422  0.53740048  0.97437761    -0.80500
O372        O  0.04954219  0.49216714  0.01938059    -0.79100
Zn373      Zn  0.99523231  0.51391770  0.03199342     1.55700
O374        O  0.02469252  0.56720939  0.97444847    -0.80500
Cd375      Cd  0.03312839  0.50964745  0.99113096     1.59700
Cd376      Cd  0.97674135  0.49433085  0.97992920     1.59600
O377        O  0.03361045  0.48328071  0.96630032    -0.80500
O378        O  0.99932957  0.51689738  0.99799017    -1.91000
Cd379      Cd  0.99453877  0.55091673  0.98903537     1.59900
O380        O  0.99697129  0.46684111  0.96342937    -0.80500
O381        O  0.97814281  0.56880192  0.01702871    -0.79100
C382        C  0.94992550  0.48284235  0.02659273     0.83400
C383        C  0.04076622  0.48512276  0.03931768     0.83100
O384        O  0.98647196  0.54507275  0.04818615    -0.78100
C385        C  0.04489629  0.55850606  0.96805316     0.83900
O386        O  0.96606988  0.49466333  0.03770600    -0.78200
C387        C  0.01939734  0.46710395  0.95847205     0.84000
C388        C  0.95971322  0.53660562  0.94800017     0.84300
O389        O  0.95954834  0.51397788  0.95252193    -0.80600
O390        O  0.29839947  0.02454789  0.77409203    -0.78100
C391        C  0.29390130  0.95667845  0.72911971     0.83000
O392        O  0.24670811  0.04024292  0.70865127    -0.79200
O393        O  0.22105535  0.96144944  0.72054611    -0.80700
O394        O  0.22923825  0.97693918  0.80646855    -0.80500
O395        O  0.27359722  0.02186068  0.80509249    -0.79100
Zn396      Zn  0.28209375  0.00663411  0.74732113     1.55700
O397        O  0.22610357  0.95018530  0.77684478    -0.80500
Cd398      Cd  0.24416134  0.00601767  0.78872156     1.59700
Cd399      Cd  0.22669237  0.02006395  0.73324726     1.59600
O400        O  0.21810602  0.03115869  0.79169417    -0.80500
O401        O  0.24919734  0.00009420  0.75402150    -1.91000
Cd402      Cd  0.24402561  0.96544173  0.74859964     1.59900
O403        O  0.20499677  0.04187354  0.75512506    -0.80500
O404        O  0.27423902  0.94778114  0.73661329    -0.79100
C405        C  0.26940473  0.03944110  0.70559245     0.83400
C406        C  0.29294017  0.02969769  0.79566980     0.83100
O407        O  0.29984184  0.97829944  0.73425046    -0.78100
C408        C  0.22106315  0.95707991  0.79803661     0.83900
O409        O  0.28315930  0.02772486  0.71947805    -0.78200
C410        C  0.20430043  0.04322302  0.77808616     0.84000
C411        C  0.20699477  0.97468133  0.70837299     0.84300
O412        O  0.20536308  0.99741748  0.71175302    -0.80600
O413        O  0.68897772  0.72330477  0.47577800    -0.78100
C414        C  0.68633804  0.77621192  0.54020596     0.83000
O415        O  0.73548968  0.79369512  0.45842735    -0.79200
O416        O  0.76261281  0.78790422  0.53830211    -0.80700
O417        O  0.75844683  0.70390489  0.52957074    -0.80500
O418        O  0.71533943  0.69524000  0.48646145    -0.79100
Zn419      Zn  0.70126746  0.75392075  0.49243506     1.55700
O420        O  0.75509125  0.73370082  0.55596361    -0.80500
Cd421      Cd  0.74205722  0.71678656  0.49977544     1.59700
Cd422      Cd  0.75683819  0.77093482  0.48011531     1.59600
O423        O  0.76804705  0.71244712  0.47573876    -0.80500
O424        O  0.73455301  0.75129587  0.50136056    -1.91000
Cd425      Cd  0.73860338  0.76020106  0.53554342     1.59900
O426        O  0.77831735  0.74750477  0.45906881    -0.80500
O427        O  0.70716521  0.77303973  0.54930524    -0.79100
C428        C  0.71255760  0.79364593  0.45637491     0.83400
C429        C  0.69691899  0.70171558  0.47459993     0.83100
O430        O  0.68094734  0.76790503  0.51941089    -0.78100
C431        C  0.76361365  0.71333061  0.54978936     0.83900
O432        O  0.69927528  0.77923975  0.46800532    -0.78200
C433        C  0.78044610  0.72459617  0.46112814     0.84000
C434        C  0.77836219  0.79710511  0.52463319     0.84300
O435        O  0.77965392  0.79204997  0.50219584    -0.80600
O436        O  0.01846453  0.77298108  0.30409821    -0.78100
C437        C  0.95020634  0.72739347  0.30731010     0.83000
O438        O  0.02849580  0.70390756  0.25509120    -0.79200
O439        O  0.94589505  0.72219220  0.23086236    -0.80700
O440        O  0.96859734  0.80088098  0.23565389    -0.80500
O441        O  0.01489377  0.80224145  0.27739593    -0.79100
Zn442      Zn  0.99902356  0.74526928  0.29113061     1.55700
O443        O  0.93720859  0.77726862  0.24284646    -0.80500
Cd444      Cd  0.99751643  0.78392733  0.25037569     1.59700
Cd445      Cd  0.00643709  0.72743690  0.23501754     1.59600
O446        O  0.02143812  0.78498544  0.22322002    -0.80500
O447        O  0.98978080  0.75020216  0.25819733    -1.91000
Cd448      Cd  0.95434615  0.74718998  0.25625600     1.59900
O449        O  0.02766667  0.74727664  0.21046767    -0.80500
O450        O  0.94053930  0.73353582  0.28741756    -0.79100
C451        C  0.03219035  0.70392351  0.27783537     0.83400
C452        C  0.02427257  0.79385819  0.29646067     0.83100
O453        O  0.97198111  0.73284781  0.31202567    -0.78100
C454        C  0.94646270  0.79587352  0.23313563     0.83900
O455        O  0.02206315  0.71875557  0.29185966    -0.78200
C456        C  0.03121362  0.77006505  0.20902934     0.84000
C457        C  0.95709323  0.70870213  0.21626831     0.84300
O458        O  0.98008069  0.70795758  0.21542847    -0.80600
O459        O  0.55321564  0.03175354  0.97865716    -0.78100
C460        C  0.55009637  0.98021345  0.04160353     0.83000
O461        O  0.50418117  0.96551160  0.95547083    -0.79200
O462        O  0.47681106  0.97371923  0.03688011    -0.80700
O463        O  0.47671636  0.05478927  0.02133883    -0.80500
O464        O  0.52884752  0.06243186  0.98612281    -0.79100
Zn465      Zn  0.53813321  0.00223737  0.99279603     1.55700
O466        O  0.47966658  0.02790685  0.05060749    -0.80500
Cd467      Cd  0.49923212  0.04210879  0.99524738     1.59700
Cd468      Cd  0.48259046  0.98733759  0.97833849     1.59600
O469        O  0.47820578  0.04683142  0.96635563    -0.80500
O470        O  0.50504027  0.00729301  0.99944833    -1.91000
Cd471      Cd  0.50010411  0.00124835  0.03410060     1.59900
O472        O  0.46124909  0.01127266  0.95736145    -0.80500
O473        O  0.53035053  0.98721105  0.05093751    -0.79100
C474        C  0.52716310  0.96533995  0.95372901     0.83400
C475        C  0.54784538  0.05395881  0.97665583     0.83100
O476        O  0.55565868  0.98649588  0.02036611    -0.78100
C477        C  0.46977318  0.04653025  0.04140464     0.83900
O478        O  0.54050312  0.97844832  0.96692337    -0.78200
C479        C  0.46326380  0.03416910  0.95457897     0.84000
C480        C  0.46189045  0.96241828  0.02370931     0.84300
O481        O  0.46055353  0.96561082  0.00089062    -0.80600
C482        C  0.29328919  0.77136876  0.28704031     0.80600
N483        N  0.27517406  0.78273497  0.29874492    -0.77700
C484        C  0.26714426  0.80469105  0.29143501     0.83100
N485        N  0.27788471  0.81538846  0.27237434    -0.77600
C486        C  0.29607644  0.80439831  0.26034003     0.83200
N487        N  0.30389366  0.78249575  0.26805853    -0.79300
N488        N  0.36166905  0.68152313  0.36624136    -0.36200
N489        N  0.33475929  0.64324735  0.34159040    -0.56800
N490        N  0.36020673  0.60816838  0.37093447    -0.36200
N491        N  0.38492676  0.64676684  0.39762233    -0.56800
C492        C  0.34396693  0.69383781  0.35492661     0.27400
C493        C  0.36990225  0.69573884  0.38440897     0.27400
C494        C  0.34335102  0.59381197  0.36050670     0.27400
C495        C  0.37012205  0.59560901  0.38926202     0.27400
C496        C  0.32930419  0.66197068  0.32698227     0.36000
C497        C  0.32821937  0.62281886  0.32979913     0.36000
C498        C  0.39795735  0.66672921  0.40321488     0.36000
C499        C  0.39782299  0.62752312  0.40513131     0.36000
C500        C  0.34069149  0.71596801  0.36620312    -0.21500
C501        C  0.35715153  0.71721051  0.38475202    -0.21500
C502        C  0.34244385  0.57188696  0.37245990    -0.21500
C503        C  0.35942343  0.57296704  0.39051079    -0.21500
C504        C  0.31897787  0.65343677  0.30582665    -0.22500
C505        C  0.31814120  0.62861520  0.30767964    -0.22500
C506        C  0.41920441  0.66018192  0.41452704    -0.22500
C507        C  0.41904086  0.63531198  0.41591512    -0.22500
C508        C  0.33235038  0.68660577  0.33335000    -0.17900
C509        C  0.38998983  0.69066637  0.39929046    -0.17900
C510        C  0.39000667  0.60317234  0.40343913    -0.17900
C511        C  0.33031067  0.59914848  0.33926061    -0.17900
H512        H  0.32816980  0.73001927  0.36114661     0.15000
H513        H  0.35974446  0.73236483  0.39686371     0.15000
H514        H  0.33124427  0.55642079  0.36816528     0.15000
H515        H  0.36375940  0.55849075  0.40281601     0.15000
H516        H  0.31249376  0.66397060  0.29077376     0.13300
H517        H  0.31096933  0.61625586  0.29428955     0.13300
H518        H  0.43314225  0.67209130  0.42137128     0.13300
H519        H  0.43286738  0.62423810  0.42403381     0.13300
H520        H  0.36910256  0.66526729  0.36054289     0.26600
H521        H  0.36600326  0.62485869  0.36476630     0.26600
C522        C  0.47968649  0.95985652  0.29872793     0.80600
N523        N  0.46932302  0.97879298  0.31025764    -0.77700
C524        C  0.45017910  0.99046818  0.30032147     0.83100
N525        N  0.44170628  0.98309220  0.27832142    -0.77600
C526        C  0.45202157  0.96413958  0.26648276     0.83200
N527        N  0.47064608  0.95263408  0.27715257    -0.79300
N528        N  0.54655677  0.87126490  0.36596464    -0.36200
N529        N  0.59899132  0.84824005  0.39666187    -0.56800
N530        N  0.63535385  0.87592771  0.37176133    -0.36200
N531        N  0.60027398  0.89599635  0.33821311    -0.56800
C532        C  0.55450567  0.84905801  0.37231677     0.27400
C533        C  0.55517709  0.87533459  0.34363421     0.27400
C534        C  0.64927980  0.86174869  0.38594140     0.27400
C535        C  0.64991931  0.88531263  0.35470416     0.27400
C536        C  0.57876842  0.84014571  0.40736276     0.36000
C537        C  0.61735797  0.84432012  0.41205722     0.36000
C538        C  0.58075550  0.90632701  0.32805334     0.36000
C539        C  0.61961502  0.90808274  0.33037749     0.36000
C540        C  0.56757860  0.83885203  0.35381831    -0.21500
C541        C  0.56782076  0.85535754  0.33557851    -0.21500
C542        C  0.67284974  0.86240936  0.37787595    -0.21500
C543        C  0.67323773  0.87718588  0.35827592    -0.21500
C544        C  0.58412719  0.83127815  0.43001375    -0.22500
C545        C  0.60878152  0.83348575  0.43281225    -0.22500
C546        C  0.58770567  0.92515869  0.31327579    -0.22500
C547        C  0.61250932  0.92618164  0.31464810    -0.22500
C548        C  0.55594864  0.84093614  0.39610109    -0.17900
C549        C  0.55715592  0.89825189  0.33296604    -0.17900
C550        C  0.64345370  0.90226807  0.33683049    -0.17900
C551        C  0.64177137  0.84877652  0.40652284    -0.17900
H552        H  0.57768978  0.82219037  0.35435345     0.15000
H553        H  0.57797341  0.85388410  0.31907548     0.15000
H554        H  0.68839355  0.85344111  0.38545072     0.15000
H555        H  0.68909096  0.88163699  0.34797878     0.15000
H556        H  0.57172535  0.82356304  0.44282369     0.13300
H557        H  0.61919340  0.82775354  0.44827529     0.13300
H558        H  0.57630310  0.93655246  0.30233215     0.13300
H559        H  0.62398348  0.93867851  0.30509989     0.13300
H560        H  0.53854284  0.88399151  0.37726674     0.26600
H561        H  0.61728944  0.87989747  0.37428062     0.26600
N562        N  0.37368702  0.88853888  0.17668477    -0.36200
N563        N  0.40264761  0.91161764  0.13999711    -0.56800
N564        N  0.37660454  0.88392222  0.10329929    -0.36200
N565        N  0.34985616  0.85877898  0.14005608    -0.56800
C566        C  0.39156703  0.89853379  0.19009710     0.27400
C567        C  0.36345546  0.87094441  0.19005933     0.27400
C568        C  0.39461697  0.89337604  0.09016000     0.27400
C569        C  0.36735495  0.86530145  0.09041730     0.27400
C570        C  0.40950908  0.92520132  0.15913823     0.36000
C571        C  0.41054086  0.92309874  0.12010399     0.36000
C572        C  0.33599970  0.85339480  0.15915472     0.36000
C573        C  0.33799744  0.85055064  0.12036569     0.36000
C574        C  0.39268483  0.88717203  0.21227975    -0.21500
C575        C  0.37497803  0.86972438  0.21223866    -0.21500
C576        C  0.39666681  0.88076100  0.06862954    -0.21500
C577        C  0.37954406  0.86295842  0.06886369    -0.21500
C578        C  0.42213971  0.94531837  0.15140710    -0.22500
C579        C  0.42275182  0.94401089  0.12663405    -0.22500
C580        C  0.31529772  0.84147921  0.15159541    -0.22500
C581        C  0.31657517  0.83968193  0.12694826    -0.22500
C582        C  0.40575828  0.91870935  0.18346031    -0.17900
C583        C  0.34294812  0.85715421  0.18337161    -0.17900
C584        C  0.34718351  0.85135710  0.09678054    -0.17900
C585        C  0.40848418  0.91385001  0.09637080    -0.17900
H586        H  0.40481702  0.89123837  0.22706528     0.15000
H587        H  0.37079344  0.85776250  0.22700510     0.15000
H588        H  0.40916867  0.88406469  0.05414919     0.15000
H589        H  0.37626027  0.84993757  0.05463146     0.15000
H590        H  0.43031760  0.95926993  0.16245872     0.13300
H591        H  0.43157507  0.95670519  0.11480972     0.13300
H592        H  0.30098736  0.83445721  0.16270593     0.13300
H593        H  0.30349686  0.83100187  0.11525575     0.13300
H594        H  0.36763185  0.89452629  0.15998361     0.26600
H595        H  0.37005373  0.89081252  0.11938368     0.26600
C596        C  0.25631572  0.97006781  0.45577758     0.80600
N597        N  0.26687283  0.96249985  0.47639901    -0.77700
C598        C  0.28638533  0.97388434  0.48582173     0.83100
N599        N  0.29543270  0.99325605  0.47387583    -0.77600
C600        C  0.28532823  0.00129004  0.45289368     0.83200
N601        N  0.26578408  0.98930692  0.44386021    -0.79300
C602        C  0.43517631  0.80844199  0.46783284     0.80600
N603        N  0.45601451  0.81765819  0.45878288    -0.77700
C604        C  0.46681040  0.80740433  0.43938581     0.83100
N605        N  0.45669994  0.78728409  0.42928628    -0.77600
C606        C  0.43591729  0.77777619  0.43791107     0.83200
N607        N  0.42534281  0.78857765  0.45714436    -0.79300
N608        N  0.36428714  0.89000532  0.56306941    -0.36200
N609        N  0.39582960  0.86201001  0.59387696    -0.56800
N610        N  0.37802061  0.88906467  0.63574090    -0.36200
N611        N  0.34439687  0.91481991  0.60512558    -0.56800
C612        C  0.37312075  0.87423257  0.54665905     0.27400
C613        C  0.34587431  0.90199269  0.55256163     0.27400
C614        C  0.38979142  0.87067295  0.64642584     0.27400
C615        C  0.36310069  0.89849039  0.65243219     0.27400
C616        C  0.40455585  0.85476791  0.57239777     0.36000
C617        C  0.41116199  0.85373782  0.61085357     0.36000
C618        C  0.33254689  0.92707948  0.58778764     0.36000
C619        C  0.33952604  0.92603055  0.62616968     0.36000
C620        C  0.36011328  0.87623711  0.52538862    -0.21500
C621        C  0.34309783  0.89384877  0.52903203    -0.21500
C622        C  0.38256539  0.86870049  0.67022443    -0.21500
C623        C  0.36585746  0.88633171  0.67403682    -0.21500
C624        C  0.42543282  0.84152544  0.57580860    -0.22500
C625        C  0.42959033  0.84084398  0.60021044    -0.22500
C626        C  0.31979870  0.94600981  0.59793949    -0.22500
C627        C  0.32408737  0.94522210  0.62228819    -0.22500
C628        C  0.39348263  0.85912697  0.54981438    -0.17900
C629        C  0.33230431  0.92099582  0.56303361    -0.17900
C630        C  0.34728898  0.91803595  0.64902730    -0.17900
C631        C  0.40784493  0.85633798  0.63588435    -0.17900
H632        H  0.36294589  0.86643369  0.50876053     0.15000
H633        H  0.33025162  0.90007712  0.51574215     0.15000
H634        H  0.38881415  0.85598664  0.68360670     0.15000
H635        H  0.35672954  0.88971935  0.69085675     0.15000
H636        H  0.43646959  0.83315418  0.56215885     0.13300
H637        H  0.44438222  0.83179985  0.60911692     0.13300
H638        H  0.30823481  0.95877512  0.58881854     0.13300
H639        H  0.31645541  0.95716529  0.63565179     0.13300
H640        H  0.37126309  0.89345358  0.57995991     0.26600
H641        H  0.38089811  0.89548060  0.61850815     0.26600
N642        N  0.37204600  0.08194116  0.37529429    -0.36200
N643        N  0.34291188  0.12053248  0.39625012    -0.56800
N644        N  0.37247842  0.15587156  0.37203300    -0.36200
N645        N  0.39945549  0.11706288  0.34864404    -0.56800
C646        C  0.35275253  0.06949269  0.38333970     0.27400
C647        C  0.38334420  0.06769842  0.35904399     0.27400
C648        C  0.35461838  0.17001128  0.38038602     0.27400
C649        C  0.38310415  0.16803606  0.35395392     0.27400
C650        C  0.33355172  0.10153378  0.40817354     0.36000
C651        C  0.33484244  0.14060760  0.40745633     0.36000
C652        C  0.41358007  0.09748059  0.34553926     0.36000
C653        C  0.41266918  0.13653975  0.34244174     0.36000
C654        C  0.35183573  0.04704166  0.37225106    -0.21500
C655        C  0.37105371  0.04594964  0.35682578    -0.21500
C656        C  0.35405487  0.19153301  0.36774790    -0.21500
C657        C  0.37202578  0.19028104  0.35101389    -0.21500
C658        C  0.31906101  0.10955624  0.42677317    -0.22500
C659        C  0.31986528  0.13435897  0.42630493    -0.22500
C660        C  0.43610412  0.10457314  0.33767031    -0.22500
C661        C  0.43537566  0.12935659  0.33524954    -0.22500
C662        C  0.33702011  0.07708719  0.40174393    -0.17900
C663        C  0.40513496  0.07339792  0.34715282    -0.17900
C664        C  0.40350439  0.16028443  0.34114075    -0.17900
C665        C  0.33955135  0.16446139  0.39984716    -0.17900
H666        H  0.33876083  0.03283891  0.37513434     0.15000
H667        H  0.37554166  0.03075051  0.34542579     0.15000
H668        H  0.34201458  0.20662588  0.37033310     0.15000
H669        H  0.37657472  0.20432906  0.33832389     0.15000
H670        H  0.30879812  0.09869288  0.43921840     0.13300
H671        H  0.31030032  0.14640393  0.43825932     0.13300
H672        H  0.45108130  0.09300094  0.33316464     0.13300
H673        H  0.44977195  0.14074142  0.32873707     0.13300
H674        H  0.37803815  0.09852124  0.38175483     0.26600
H675        H  0.37798056  0.13951592  0.37919705     0.26600
N676        N  0.18086101  0.87742554  0.37832761    -0.36200
N677        N  0.14603465  0.84910377  0.35109627    -0.56800
N678        N  0.10753398  0.86941556  0.38030570    -0.36200
N679        N  0.14207917  0.90011508  0.40520395    -0.56800
C680        C  0.19465126  0.86919544  0.36009757     0.27400
C681        C  0.19232398  0.89672998  0.38809564     0.27400
C682        C  0.09472286  0.85876431  0.36244701     0.27400
C683        C  0.09271820  0.88539255  0.39113392     0.27400
C684        C  0.16624040  0.83957188  0.34170113     0.36000
C685        C  0.12750505  0.83609211  0.34200839     0.36000
C686        C  0.16111641  0.90904775  0.41755915     0.36000
C687        C  0.12242393  0.90482133  0.41857711     0.36000
C688        C  0.21521502  0.88328972  0.35836001    -0.21500
C689        C  0.21360824  0.90087084  0.37584713    -0.21500
C690        C  0.07142646  0.86769107  0.36230187    -0.21500
C691        C  0.07021493  0.88458652  0.38028397    -0.21500
C692        C  0.16048712  0.82069989  0.32620193    -0.22500
C693        C  0.13589244  0.81859140  0.32629486    -0.22500
C694        C  0.15349845  0.91952266  0.43890661    -0.22500
C695        C  0.12891282  0.91698533  0.43945362    -0.22500
C696        C  0.18967326  0.84868354  0.34565994    -0.17900
C697        C  0.18495736  0.90952616  0.40886610    -0.17900
C698        C  0.09857896  0.90012375  0.41109291    -0.17900
C699        C  0.10303312  0.84061539  0.34669550    -0.17900
H700        H  0.22985337  0.88113267  0.34579144     0.15000
H701        H  0.22688718  0.91475534  0.37953535     0.15000
H702        H  0.05674650  0.86267528  0.35040961     0.15000
H703        H  0.05445260  0.89500002  0.38490191     0.15000
H704        H  0.17267616  0.80990813  0.31555028     0.13300
H705        H  0.12537202  0.80582042  0.31581215     0.13300
H706        H  0.16444216  0.92842828  0.45247162     0.13300
H707        H  0.11712642  0.92352845  0.45345597     0.13300
H708        H  0.16536561  0.86931660  0.38477468     0.26600
H709        H  0.12495318  0.86520300  0.38548742     0.26600
O710        O  0.79619104  0.02748938  0.27702005    -0.78100
C711        C  0.79504392  0.96224858  0.22759734     0.83000
O712        O  0.74151873  0.04442229  0.21305785    -0.79200
O713        O  0.72357575  0.96088425  0.22176430    -0.80700
O714        O  0.73050535  0.97559055  0.30713525    -0.80500
O715        O  0.76961680  0.02443956  0.30647569    -0.79100
Zn716      Zn  0.78069476  0.01127574  0.24818992     1.55700
O717        O  0.72945424  0.94932739  0.27711403    -0.80500
Cd718      Cd  0.74273705  0.00571367  0.28976584     1.59700
Cd719      Cd  0.72370985  0.01961655  0.23505848     1.59600
O720        O  0.71523017  0.02857887  0.29364243    -0.80500
O721        O  0.74840742  0.00164512  0.25503874    -1.91000
Cd722      Cd  0.74621632  0.96678018  0.24959335     1.59900
O723        O  0.70027217  0.03867693  0.25769618    -0.80500
O724        O  0.77747223  0.95175771  0.23781964    -0.79100
C725        C  0.76402624  0.04876653  0.21185964     0.83400
C726        C  0.78892288  0.03313612  0.29807005     0.83100
O727        O  0.79899235  0.98470962  0.23083879    -0.78100
C728        C  0.72334011  0.95570711  0.29821181     0.83900
O729        O  0.77940029  0.03744608  0.22438134    -0.78200
C730        C  0.70054550  0.04017442  0.28064525     0.84000
C731        C  0.70833363  0.97275231  0.20962316     0.84300
O732        O  0.70496390  0.99535700  0.21274402    -0.80600
O733        O  0.80572680  0.23695402  0.96891342    -0.78100
C734        C  0.79940897  0.30202201  0.02012905     0.83000
O735        O  0.75063125  0.21531920  0.02753059    -0.79200
O736        O  0.72408707  0.29540718  0.01748504    -0.80700
O737        O  0.73495742  0.28477638  0.93659207    -0.80500
O738        O  0.78552932  0.24766790  0.93588434    -0.79100
Zn739      Zn  0.78902767  0.25313198  0.99637234     1.55700
O740        O  0.73711718  0.31322069  0.96475816    -0.80500
Cd741      Cd  0.75357507  0.25654354  0.95148844     1.59700
Cd742      Cd  0.73277508  0.23750895  0.00272998     1.59600
O743        O  0.73275465  0.22756169  0.94293008    -0.80500
O744        O  0.75671184  0.25991096  0.98678015    -1.91000
Cd745      Cd  0.75133677  0.29442655  0.99384771     1.59900
O746        O  0.71578682  0.21514124  0.97700859    -0.80500
O747        O  0.77947539  0.31066813  0.01265488    -0.79100
C748        C  0.77311376  0.21481771  0.03222940     0.83400
C749        C  0.80203103  0.23562731  0.94630728     0.83100
O750        O  0.80609515  0.28111147  0.01330176    -0.78100
C751        C  0.72945625  0.30562765  0.94436229     0.83900
O752        O  0.78807459  0.22822039  0.02146558    -0.78200
C753        C  0.71871779  0.21365194  0.95424805     0.84000
C754        C  0.70831972  0.28123496  0.02595253     0.84300
O755        O  0.70784267  0.25859597  0.02138457    -0.80600
C756        C  0.28820774  0.27283084  0.80262196     0.80600
N757        N  0.26826582  0.28220003  0.81281844    -0.77700
C758        C  0.25707449  0.30182254  0.80345352     0.83100
N759        N  0.26643742  0.31276965  0.78365725    -0.77600
C760        C  0.28685878  0.30405198  0.77332068     0.83200
N761        N  0.29746056  0.28403354  0.78292227    -0.79300
C762        C  0.48451650  0.30253299  0.95594379     0.80600
N763        N  0.47508949  0.31385085  0.97538075    -0.77700
C764        C  0.45507643  0.30523945  0.98639113     0.83100
N765        N  0.44370117  0.28532844  0.97706473    -0.77600
C766        C  0.45276797  0.27375998  0.95735444     0.83200
N767        N  0.47311498  0.28266093  0.94707460    -0.79300
C768        C  0.44578399  0.45794428  0.76239683     0.80600
N769        N  0.46449228  0.44655548  0.77340276    -0.77700
C770        C  0.47418932  0.45566694  0.79411415     0.83100
N771        N  0.46500343  0.47628310  0.80370294    -0.77600
C772        C  0.44607112  0.48770470  0.79332836     0.83200
N773        N  0.43665888  0.47825204  0.77267698    -0.79300
C774        C  0.25555117  0.46268958  0.95325103     0.80600
N775        N  0.26639018  0.45428364  0.97351188    -0.77700
C776        C  0.28813803  0.46265109  0.98100070     0.83100
N777        N  0.29936789  0.47993407  0.96776579    -0.77600
C778        C  0.28891680  0.48870118  0.94736132     0.83200
N779        N  0.26704528  0.47994276  0.94030742    -0.79300
N780        N  0.36240949  0.57618366  0.86495595    -0.36200
N781        N  0.38834617  0.61281488  0.83819454    -0.56800
N782        N  0.36336666  0.64994342  0.86578533    -0.36200
N783        N  0.33488711  0.61341003  0.89038674    -0.56800
C784        C  0.37274332  0.56271359  0.84745750     0.27400
C785        C  0.34396055  0.56315326  0.87405276     0.27400
C786        C  0.37352491  0.66350655  0.84840237     0.27400
C787        C  0.34688688  0.66388347  0.87691143     0.27400
C788        C  0.40156051  0.59328304  0.83214403     0.36000
C789        C  0.40111316  0.63245330  0.83149501     0.36000
C790        C  0.32907625  0.59360719  0.90334883     0.36000
C791        C  0.33054430  0.63283752  0.90457190     0.36000
C792        C  0.36075842  0.54080473  0.84542580    -0.21500
C793        C  0.34244407  0.54117768  0.86201468    -0.21500
C794        C  0.36333303  0.68635603  0.84846422    -0.21500
C795        C  0.34663127  0.68663918  0.86657079    -0.21500
C796        C  0.42278609  0.60052383  0.82134618    -0.22500
C797        C  0.42238583  0.62537043  0.82071399    -0.22500
C798        C  0.32094635  0.60050169  0.92587881    -0.22500
C799        C  0.32161484  0.62538697  0.92655134    -0.22500
C800        C  0.39368620  0.56909768  0.83450205    -0.17900
C801        C  0.33022268  0.56954470  0.89458351    -0.17900
C802        C  0.33352621  0.65717770  0.89736082    -0.17900
C803        C  0.39328970  0.65661969  0.83410306    -0.17900
H804        H  0.36492294  0.52598917  0.83340791     0.15000
H805        H  0.32983883  0.52664050  0.86530055     0.15000
H806        H  0.36798902  0.70152506  0.83716257     0.15000
H807        H  0.33585784  0.70200970  0.87181096     0.15000
H808        H  0.43680756  0.58909123  0.81419501     0.13300
H809        H  0.43617063  0.63690461  0.81322139     0.13300
H810        H  0.31495659  0.58881622  0.94023216     0.13300
H811        H  0.31627336  0.63669722  0.94150989     0.13300
H812        H  0.36882268  0.59250352  0.87166001     0.26600
H813        H  0.36863694  0.63281344  0.87101753     0.26600
N814        N  0.56538707  0.37837960  0.87144530    -0.36200
N815        N  0.59892871  0.40804770  0.84430060    -0.56800
N816        N  0.63860570  0.38327323  0.86752446    -0.36200
N817        N  0.60501455  0.35546130  0.89670685    -0.56800
C818        C  0.55103182  0.39639837  0.86355140     0.27400
C819        C  0.55425269  0.36804654  0.89038348     0.27400
C820        C  0.65048085  0.40125803  0.85619859     0.27400
C821        C  0.65367769  0.37415517  0.88433865     0.27400
C822        C  0.57821330  0.41339408  0.83270745     0.36000
C823        C  0.61704026  0.41542958  0.82997653     0.36000
C824        C  0.58685222  0.34083792  0.90367133     0.36000
C825        C  0.62571222  0.34399776  0.90224861     0.36000
C826        C  0.53061236  0.39761123  0.87770348    -0.21500
C827        C  0.53262325  0.37965579  0.89464061    -0.21500
C828        C  0.67347874  0.40345371  0.86578239    -0.21500
C829        C  0.67547412  0.38640189  0.88358567    -0.21500
C830        C  0.58314739  0.42445415  0.81094314    -0.22500
C831        C  0.60780842  0.42578039  0.80922508    -0.22500
C832        C  0.59600427  0.31998232  0.91386539    -0.22500
C833        C  0.62070034  0.32200373  0.91300519    -0.22500
C834        C  0.55510249  0.41052305  0.84282443    -0.17900
C835        C  0.56229018  0.34722959  0.90260227    -0.17900
C836        C  0.64893809  0.35396565  0.89911838    -0.17900
C837        C  0.64164568  0.41464470  0.83643238    -0.17900
H838        H  0.51565921  0.40993787  0.87579135     0.15000
H839        H  0.51950791  0.37539424  0.90831115     0.15000
H840        H  0.68748383  0.41587085  0.86035097     0.15000
H841        H  0.69133214  0.38314391  0.89447708     0.15000
H842        H  0.57033665  0.43129954  0.79793330     0.13300
H843        H  0.61778745  0.43384244  0.79462965     0.13300
H844        H  0.58594754  0.30509340  0.92142531     0.13300
H845        H  0.63349711  0.30893766  0.91973553     0.13300
H846        H  0.58099253  0.37225083  0.86323912     0.26600
H847        H  0.62175060  0.37655045  0.86297483     0.26600
N848        N  0.36227978  0.37920271  0.68034642    -0.36200
N849        N  0.33599936  0.34929995  0.64582758    -0.56800
N850        N  0.36025873  0.37429655  0.60706391    -0.36200
N851        N  0.38868928  0.40214124  0.64170439    -0.56800
C852        C  0.35345436  0.36167957  0.69479549     0.27400
C853        C  0.38023201  0.39046890  0.69258267     0.27400
C854        C  0.34970753  0.35572829  0.59514516     0.27400
C855        C  0.37822391  0.38259247  0.59303893     0.27400
C856        C  0.32394708  0.34370444  0.66608838     0.36000
C857        C  0.32202701  0.34208789  0.62715924     0.36000
C858        C  0.39534808  0.41688735  0.65999558     0.36000
C859        C  0.39516346  0.41330236  0.62117148     0.36000
C860        C  0.36589891  0.36189864  0.71650273    -0.21500
C861        C  0.38281379  0.38002842  0.71509727    -0.21500
C862        C  0.36102434  0.35222041  0.57323306    -0.21500
C863        C  0.37903225  0.36920890  0.57189680    -0.21500
C864        C  0.30218684  0.33278375  0.66028979    -0.22500
C865        C  0.30103027  0.33163860  0.63554790    -0.22500
C866        C  0.40634579  0.43746317  0.65106487    -0.22500
C867        C  0.40616170  0.43521655  0.62638509    -0.22500
C868        C  0.33332813  0.34672081  0.68960720    -0.17900
C869        C  0.39317454  0.41098095  0.68460325    -0.17900
C870        C  0.39267332  0.40306419  0.59799363    -0.17900
C871        C  0.32909739  0.34302914  0.60282446    -0.17900
H872        H  0.36287148  0.35039815  0.73190511     0.15000
H873        H  0.39531297  0.38522525  0.72921459     0.15000
H874        H  0.35652545  0.33905011  0.55946797     0.15000
H875        H  0.39113256  0.37165492  0.55690959     0.15000
H876        H  0.28884204  0.32588116  0.67260594     0.13300
H877        H  0.28660101  0.32373367  0.62495627     0.13300
H878        H  0.41395797  0.45235183  0.66126431     0.13300
H879        H  0.41362387  0.44800729  0.61374981     0.13300
H880        H  0.35533770  0.38434873  0.66374118     0.26600
H881        H  0.35441098  0.38195799  0.62308802     0.26600
N882        N  0.37349545  0.38879166  0.06686425    -0.36200
N883        N  0.34185772  0.40847263  0.10337840    -0.56800
N884        N  0.37175790  0.38647794  0.14104690    -0.36200
N885        N  0.40151360  0.36457410  0.10436188    -0.56800
C886        C  0.35467929  0.39610479  0.05310373     0.27400
C887        C  0.38608613  0.37254503  0.05379060     0.27400
C888        C  0.35264522  0.39379575  0.15398171     0.27400
C889        C  0.38346155  0.36986153  0.15445376     0.27400
C890        C  0.33337388  0.42055532  0.08399596     0.36000
C891        C  0.33285300  0.41961152  0.12305347     0.36000
C892        C  0.41535835  0.35923371  0.08518764     0.36000
C893        C  0.41372258  0.35721655  0.12412599     0.36000
C894        C  0.35567359  0.38465133  0.03088015    -0.21500
C895        C  0.37507814  0.36938677  0.03153586    -0.21500
C896        C  0.35249345  0.38216033  0.17604741    -0.21500
C897        C  0.37194620  0.36706926  0.17635564    -0.21500
C898        C  0.31856795  0.43923748  0.09145700    -0.22500
C899        C  0.31844706  0.43877934  0.11618592    -0.22500
C900        C  0.43654208  0.34842669  0.09286617    -0.22500
C901        C  0.43540120  0.34697753  0.11751981    -0.22500
C902        C  0.33739768  0.41370934  0.05972774    -0.17900
C903        C  0.40789097  0.36136279  0.06083751    -0.17900
C904        C  0.40441249  0.35727937  0.14773172    -0.17900
C905        C  0.33585752  0.41146638  0.14698778    -0.17900
H906        H  0.34385173  0.38702563  0.01558805     0.15000
H907        H  0.38084085  0.35779776  0.01695123     0.15000
H908        H  0.33961759  0.38423120  0.19043535     0.15000
H909        H  0.37691778  0.35525548  0.19102895     0.15000
H910        H  0.30850533  0.45168024  0.08035567     0.13300
H911        H  0.30835521  0.45074269  0.12777501     0.13300
H912        H  0.45096288  0.34154217  0.08181986     0.13300
H913        H  0.44869599  0.33878503  0.12919942     0.13300
H914        H  0.37832354  0.39558127  0.08366267     0.26600
H915        H  0.37692653  0.39320651  0.12446537     0.26600
N916        N  0.37523108  0.18701318  0.87546367    -0.36200
N917        N  0.40276248  0.14989844  0.90085963    -0.56800
N918        N  0.37773623  0.11308876  0.87306869    -0.36200
N919        N  0.34818215  0.15028365  0.84977734    -0.56800
C920        C  0.38518927  0.19978112  0.89378468     0.27400
C921        C  0.35615423  0.19980321  0.86726614     0.27400
C922        C  0.38889084  0.09911076  0.88965306     0.27400
C923        C  0.36052963  0.09937908  0.86242400     0.27400
C924        C  0.41497892  0.16968498  0.90841992     0.36000
C925        C  0.41574590  0.13048020  0.90778542     0.36000
C926        C  0.34034438  0.17001070  0.83782813     0.36000
C927        C  0.34205448  0.13091838  0.83621136     0.36000
C928        C  0.37230982  0.22091870  0.89726390    -0.21500
C929        C  0.35387335  0.22084588  0.88062523    -0.21500
C930        C  0.37891089  0.07612099  0.88919691    -0.21500
C931        C  0.36095335  0.07632213  0.87214331    -0.21500
C932        C  0.43574382  0.16282487  0.92047854    -0.22500
C933        C  0.43618975  0.13796253  0.92014494    -0.22500
C934        C  0.32898878  0.16316628  0.81660145    -0.22500
C935        C  0.33014065  0.13834116  0.81553234    -0.22500
C936        C  0.40656549  0.19368488  0.90627992    -0.17900
C937        C  0.34206258  0.19389031  0.84679755    -0.17900
C938        C  0.34521705  0.10664767  0.84335022    -0.17900
C939        C  0.40848095  0.10614219  0.90451197    -0.17900
H940        H  0.37598036  0.23507258  0.91027266     0.15000
H941        H  0.34065089  0.23495077  0.87821939     0.15000
H942        H  0.38401480  0.06073581  0.90002250     0.15000
H943        H  0.34961016  0.06110616  0.86734858     0.15000
H944        H  0.44891182  0.17449395  0.92905968     0.13300
H945        H  0.44979085  0.12668752  0.92837077     0.13300
H946        H  0.32053820  0.17480291  0.80344743     0.13300
H947        H  0.32263601  0.12700481  0.80144188     0.13300
H948        H  0.38223908  0.17141767  0.86782576     0.26600
H949        H  0.38231435  0.13058245  0.86836010     0.26600
N950        N  0.16951790  0.37309626  0.88842484    -0.36200
N951        N  0.13107088  0.40166507  0.91036206    -0.56800
N952        N  0.09557099  0.37184245  0.88584263    -0.36200
N953        N  0.13408554  0.34554210  0.86142739    -0.56800
C954        C  0.18217113  0.39187430  0.89774515     0.27400
C955        C  0.18370937  0.36214470  0.87192625     0.27400
C956        C  0.08139782  0.38976555  0.89419000     0.27400
C957        C  0.08307434  0.36047575  0.86821791     0.27400
C958        C  0.15003163  0.41095268  0.92259079     0.36000
C959        C  0.11107585  0.41003490  0.92125855     0.36000
C960        C  0.15384823  0.33277095  0.85549865     0.36000
C961        C  0.11495466  0.33233822  0.85406401     0.36000
C962        C  0.20481449  0.39255392  0.88741630    -0.21500
C963        C  0.20571088  0.37395995  0.87103263    -0.21500
C964        C  0.05947995  0.38938743  0.88215702    -0.21500
C965        C  0.06058410  0.37100750  0.86567186    -0.21500
C966        C  0.14206459  0.42554758  0.94122859    -0.22500
C967        C  0.11734555  0.42490017  0.94043490    -0.22500
C968        C  0.14721468  0.31134181  0.84425185    -0.22500
C969        C  0.12252753  0.31108610  0.84332814    -0.22500
C970        C  0.17436111  0.40784151  0.91606359    -0.17900
C971        C  0.17772913  0.34121376  0.85830432    -0.17900
C972        C  0.09091745  0.34028660  0.85487388    -0.17900
C973        C  0.08736300  0.40618374  0.91273321    -0.17900
H974        H  0.21925679  0.40516888  0.89124043     0.15000
H975        H  0.22093655  0.36964303  0.85979127     0.15000
H976        H  0.04430410  0.40128351  0.88478477     0.15000
H977        H  0.04638082  0.36601328  0.85319285     0.15000
H978        H  0.15292777  0.43586730  0.95383365     0.13300
H979        H  0.10536687  0.43470256  0.95221877     0.13300
H980        H  0.15892465  0.29754484  0.83706394     0.13300
H981        H  0.11142362  0.29716901  0.83516461     0.13300
H982        H  0.15268471  0.36741789  0.89392671     0.26600
H983        H  0.11230789  0.36697074  0.89242867     0.26600
C984        C  0.69782753  0.73343980  0.21106770     0.80600
N985        N  0.68778954  0.72146559  0.22991638    -0.77700
C986        C  0.69605369  0.69940577  0.23679565     0.83100
N987        N  0.71466152  0.68943799  0.22451132    -0.77600
C988        C  0.72494716  0.70080431  0.20540562     0.83200
N989        N  0.71617768  0.72280361  0.19881191    -0.79300
N990        N  0.62155312  0.61102021  0.32053927    -0.36200
N991        N  0.64954268  0.63623118  0.35724190    -0.56800
N992        N  0.62298507  0.60987359  0.39402768    -0.36200
N993        N  0.59724177  0.58243066  0.35747677    -0.56800
C994        C  0.63894433  0.62128127  0.30692128     0.27400
C995        C  0.61093385  0.59344030  0.30717889     0.27400
C996        C  0.64047646  0.62051967  0.40727154     0.27400
C997        C  0.61374467  0.59182344  0.40743159     0.27400
C998        C  0.65558266  0.64950368  0.33776890     0.36000
C999        C  0.65530377  0.64964995  0.37686560     0.36000
C1000       C  0.58341996  0.57665652  0.33819109     0.36000
C1001       C  0.58481349  0.57566878  0.37721271     0.36000
C1002       C  0.63938932  0.61003291  0.28458307    -0.21500
C1003       C  0.62177395  0.59242526  0.28476005    -0.21500
C1004       C  0.64266473  0.60892891  0.42926687    -0.21500
C1005       C  0.62560010  0.59090548  0.42944552    -0.21500
C1006       C  0.66555650  0.67132005  0.34506848    -0.22500
C1007       C  0.66544849  0.67138221  0.36983989    -0.22500
C1008       C  0.56225011  0.56581215  0.34569203    -0.22500
C1009       C  0.56315668  0.56515455  0.37044160    -0.22500
C1010       C  0.65311429  0.64167491  0.31356005    -0.17900
C1011       C  0.59028412  0.57997034  0.31392374    -0.17900
C1012       C  0.59341611  0.57782323  0.40115167    -0.17900
C1013       C  0.65250638  0.64200427  0.40100741    -0.17900
H1014       H  0.65093579  0.61434506  0.26957685     0.15000
H1015       H  0.61705117  0.58063770  0.26986868     0.15000
H1016       H  0.65462499  0.61363093  0.44400955     0.15000
H1017       H  0.62190886  0.57892754  0.44433085     0.15000
H1018       H  0.67233868  0.68562124  0.33372387     0.13300
H1019       H  0.67211820  0.68575408  0.38135074     0.13300
H1020       H  0.54770878  0.55902244  0.33451121     0.13300
H1021       H  0.54951241  0.55771223  0.38210641     0.13300
H1022       H  0.61590006  0.61691630  0.33732004     0.26600
H1023       H  0.61628750  0.61606773  0.37770790     0.26600
C1024       C  0.73426581  0.54247767  0.03324575     0.80600
N1025       N  0.72378109  0.52183467  0.04156366    -0.77700
C1026       C  0.70351135  0.51275535  0.03105197     0.83100
N1027       N  0.69357606  0.52475819  0.01226155    -0.77600
C1028       C  0.70366141  0.54518471  0.00361674     0.83200
N1029       N  0.72376589  0.55414660  0.01447562    -0.79300
C1030       C  0.52029994  0.69811678  0.05257181     0.80600
N1031       N  0.52807216  0.71984801  0.06103803    -0.77700
C1032       C  0.54503032  0.73272014  0.04907573     0.83100
N1033       N  0.55399064  0.72350357  0.02823017    -0.77600
C1034       C  0.54624199  0.70192879  0.01917548     0.83200
N1035       N  0.52942483  0.68938850  0.03162241    -0.79300
C1036       C  0.54603950  0.51070323  0.19735379     0.80600
N1037       N  0.52646679  0.52194913  0.18784058    -0.77700
C1038       C  0.51455856  0.53949594  0.19994776     0.83100
N1039       N  0.52227914  0.54581716  0.22227980    -0.77600
C1040       C  0.54176870  0.53499359  0.23245478     0.83200
N1041       N  0.55369402  0.51757459  0.21978292    -0.79300
N1042       N  0.42881005  0.61872407  0.12330977    -0.36200
N1043       N  0.39114041  0.59295482  0.14769948    -0.56800
N1044       N  0.35654013  0.62847015  0.12908530    -0.36200
N1045       N  0.39403840  0.65210600  0.10231981    -0.56800
C1046       C  0.44081766  0.59886437  0.13078587     0.27400
C1047       C  0.44222920  0.62930993  0.10609004     0.27400
C1048       C  0.34210752  0.61054071  0.13679596     0.27400
C1049       C  0.34360380  0.64148850  0.11311265     0.27400
C1050       C  0.41022624  0.58268498  0.15872928     0.36000
C1051       C  0.37170976  0.58731712  0.16095883     0.36000
C1052       C  0.41461539  0.66319362  0.09580491     0.36000
C1053       C  0.37613054  0.66818238  0.09891466     0.36000
C1054       C  0.46217419  0.59682813  0.11824702    -0.21500
C1055       C  0.46300549  0.61594597  0.10254441    -0.21500
C1056       C  0.31970058  0.61227815  0.12578893    -0.21500
C1057       C  0.32070217  0.63175107  0.11069400    -0.21500
C1058       C  0.40284498  0.57018175  0.17895684    -0.22500
C1059       C  0.37830075  0.57286447  0.18018952    -0.22500
C1060       C  0.40976356  0.68651136  0.08815469    -0.22500
C1061       C  0.38526072  0.68959074  0.08992226    -0.22500
C1062       C  0.43399747  0.58376094  0.15005217    -0.17900
C1063       C  0.43731993  0.65180016  0.09504442    -0.17900
C1064       C  0.35152434  0.66268458  0.10168708    -0.17900
C1065       C  0.34799081  0.59386792  0.15492481    -0.17900
H1066       H  0.47588916  0.58317198  0.12045537     0.15000
H1067       H  0.47755620  0.61988348  0.09030303     0.15000
H1068       H  0.30411132  0.60089396  0.12853488     0.15000
H1069       H  0.30607050  0.63825185  0.09955904     0.15000
H1070       H  0.41391918  0.55990074  0.19127174     0.13300
H1071       H  0.36664491  0.56511037  0.19366404     0.13300
H1072       H  0.42246771  0.69966471  0.08142380     0.13300
H1073       H  0.37526614  0.70556308  0.08490566     0.13300
H1074       H  0.41331777  0.62575448  0.13087849     0.26600
H1075       H  0.37365550  0.63247772  0.13562942     0.26600
N1076       N  0.61752190  0.42885460  0.10304715    -0.36200
N1077       N  0.59078037  0.39271275  0.13000892    -0.56800
N1078       N  0.61314748  0.35464977  0.10159566    -0.36200
N1079       N  0.64212964  0.39076207  0.07692259    -0.56800
C1080       C  0.60920202  0.44237028  0.12153759     0.27400
C1081       C  0.63588292  0.44123970  0.09298177     0.27400
C1082       C  0.60210775  0.34133072  0.11860260     0.27400
C1083       C  0.62989753  0.34036425  0.09132131     0.27400
C1084       C  0.58018900  0.41281369  0.13875712     0.36000
C1085       C  0.57740151  0.37376522  0.13744222     0.36000
C1086       C  0.65012023  0.40990905  0.06431116     0.36000
C1087       C  0.64843504  0.37091548  0.06435060     0.36000
C1088       C  0.62226036  0.46371214  0.12304829    -0.21500
C1089       C  0.63913353  0.46296842  0.10506607    -0.21500
C1090       C  0.61147832  0.31811899  0.11862018    -0.21500
C1091       C  0.62904400  0.31753503  0.10145501    -0.21500
C1092       C  0.56015251  0.40658130  0.15213861    -0.22500
C1093       C  0.55824035  0.38184406  0.15108583    -0.22500
C1094       C  0.66159624  0.40222413  0.04357694    -0.22500
C1095       C  0.66065597  0.37742812  0.04368062    -0.22500
C1096       C  0.58936745  0.43652967  0.13628763    -0.17900
C1097       C  0.64899367  0.43403023  0.07243967    -0.17900
C1098       C  0.64561759  0.34707359  0.07266922    -0.17900
C1099       C  0.58349467  0.34924220  0.13389066    -0.17900
H1100       H  0.61984213  0.47837477  0.13572626     0.15000
H1101       H  0.65222873  0.47691522  0.10123064     0.15000
H1102       H  0.60638365  0.30314891  0.12999468     0.15000
H1103       H  0.63998735  0.30203216  0.09701496     0.15000
H1104       H  0.54833980  0.41857387  0.16190839     0.13300
H1105       H  0.54476973  0.37098212  0.15999314     0.13300
H1106       H  0.67025212  0.41328372  0.03012351     0.13300
H1107       H  0.66846798  0.36553516  0.03036291     0.13300
H1108       H  0.61015416  0.41278757  0.09672444     0.26600
H1109       H  0.60894006  0.37219218  0.09677422     0.26600
N1110       N  0.62502637  0.63342753  0.92513045    -0.36200
N1111       N  0.59611332  0.66036413  0.89023486    -0.56800
N1112       N  0.62079838  0.63543754  0.85183253    -0.36200
N1113       N  0.64769000  0.60658248  0.88648297    -0.56800
C1114       C  0.60789910  0.64312018  0.93940166     0.27400
C1115       C  0.63502115  0.61480101  0.93735089     0.27400
C1116       C  0.60229994  0.64556013  0.83969656     0.27400
C1117       C  0.62961085  0.61780559  0.83759765     0.27400
C1118       C  0.58962115  0.67222295  0.91044290     0.36000
C1119       C  0.58750113  0.67323116  0.87144171     0.36000
C1120       C  0.66107111  0.59832407  0.90506952     0.36000
C1121       C  0.65897832  0.59970172  0.86612799     0.36000
C1122       C  0.60715312  0.63059492  0.96097913    -0.21500
C1123       C  0.62405803  0.61260050  0.95957254    -0.21500
C1124       C  0.59932674  0.63424116  0.81758079    -0.21500
C1125       C  0.61663716  0.61681519  0.81619001    -0.21500
C1126       C  0.57647632  0.69262123  0.90447768    -0.22500
C1127       C  0.57518930  0.69328798  0.87970722    -0.22500
C1128       C  0.68088249  0.58589947  0.89645448    -0.22500
C1129       C  0.67944716  0.58662318  0.87174388    -0.22500
C1130       C  0.59377915  0.66373692  0.93409863    -0.17900
C1131       C  0.65469138  0.60060138  0.92959893    -0.17900
C1132       C  0.65009291  0.60375539  0.84262259    -0.17900
C1133       C  0.58927065  0.66600771  0.84709181    -0.17900
H1134       H  0.59570872  0.63409795  0.97627268     0.15000
H1135       H  0.62815679  0.59965066  0.97354245     0.15000
H1136       H  0.58634419  0.63842562  0.80362906     0.15000
H1137       H  0.61946620  0.60504983  0.80089548     0.15000
H1138       H  0.56834620  0.70544099  0.91669859     0.13300
H1139       H  0.56589111  0.70668870  0.86903266     0.13300
H1140       H  0.69476280  0.57699167  0.90683892     0.13300
H1141       H  0.69192673  0.57835402  0.85933686     0.13300
H1142       H  0.63061306  0.64015966  0.90864608     0.26600
H1143       H  0.62817806  0.64137863  0.86803933     0.26600
N1144       N  0.81162622  0.61831772  0.12361215    -0.36200
N1145       N  0.85203553  0.59933017  0.09605175    -0.56800
N1146       N  0.88502301  0.62689886  0.12654161    -0.36200
N1147       N  0.84471561  0.64809614  0.15199983    -0.56800
C1148       C  0.80003455  0.60760129  0.10488711     0.27400
C1149       C  0.79605839  0.63389526  0.13407093     0.27400
C1150       C  0.89998567  0.61985706  0.10882146     0.27400
C1151       C  0.89619206  0.64496540  0.13862064     0.27400
C1152       C  0.83444447  0.58450893  0.08781576     0.36000
C1153       C  0.87316234  0.58946292  0.08926331     0.36000
C1154       C  0.82416299  0.65265273  0.16398734     0.36000
C1155       C  0.86292050  0.65636670  0.16603831     0.36000
C1156       C  0.77666433  0.61626019  0.10362197    -0.21500
C1157       C  0.77416274  0.63282116  0.12202524    -0.21500
C1158       C  0.92095402  0.63350485  0.10977892    -0.21500
C1159       C  0.91860624  0.64925903  0.12866942    -0.21500
C1160       C  0.84442954  0.56518445  0.07551888    -0.22500
C1161       C  0.86900491  0.56827712  0.07652160    -0.22500
C1162       C  0.82933825  0.66421846  0.18561003    -0.22500
C1163       C  0.85393056  0.66631246  0.18702753    -0.22500
C1164       C  0.80952289  0.58916254  0.08987463    -0.17900
C1165       C  0.80074530  0.64812375  0.15489824    -0.17900
C1166       C  0.88732729  0.65685090  0.15918799    -0.17900
C1167       C  0.89592348  0.60049581  0.09271709    -0.17900
H1168       H  0.76275621  0.61099626  0.09091844     0.15000
H1169       H  0.75797622  0.64275827  0.12619916     0.15000
H1170       H  0.93650653  0.63210760  0.09824501     0.15000
H1171       H  0.93196653  0.66232947  0.13447262     0.15000
H1172       H  0.83498244  0.55053847  0.06657824     0.13300
H1173       H  0.88227598  0.55657795  0.06841890     0.13300
H1174       H  0.81670524  0.67065522  0.19889559     0.13300
H1175       H  0.86400655  0.67481496  0.20149355     0.13300
H1176       H  0.82875438  0.61417200  0.12973674     0.26600
H1177       H  0.86882383  0.61887791  0.13105322     0.26600
N1178       N  0.62088033  0.82067595  0.12960110    -0.36200
N1179       N  0.65180118  0.85678696  0.15245108    -0.56800
N1180       N  0.62845689  0.89417556  0.12340732    -0.36200
N1181       N  0.59987156  0.85809439  0.09851940    -0.56800
C1182       C  0.63704451  0.80663074  0.14142648     0.27400
C1183       C  0.61071032  0.80698209  0.11195793     0.27400
C1184       C  0.64691317  0.90687470  0.13305875     0.27400
C1185       C  0.61894242  0.90777834  0.10562202     0.27400
C1186       C  0.65578227  0.83807469  0.16754489     0.36000
C1187       C  0.66022317  0.87684748  0.16368420     0.36000
C1188       C  0.58695532  0.83891443  0.09057893     0.36000
C1189       C  0.58966576  0.87801392  0.08882962     0.36000
C1190       C  0.63711731  0.78377898  0.13118750    -0.21500
C1191       C  0.62029494  0.78387095  0.11293284    -0.21500
C1192       C  0.64922499  0.92877226  0.12122144    -0.21500
C1193       C  0.63149670  0.92939265  0.10398314    -0.21500
C1194       C  0.66698213  0.84628883  0.18840184    -0.22500
C1195       C  0.66988895  0.87083566  0.18590596    -0.22500
C1196       C  0.56875084  0.84668290  0.07528479    -0.22500
C1197       C  0.57040720  0.87144405  0.07428336    -0.22500
C1198       C  0.65091539  0.81352587  0.16192030    -0.17900
C1199       C  0.59253662  0.81442311  0.09540569    -0.17900
C1200       C  0.59831180  0.90192339  0.09186204    -0.17900
C1201       C  0.66022263  0.90034027  0.15369540    -0.17900
H1202       H  0.64788238  0.76845631  0.13659839     0.15000
H1203       H  0.61576554  0.76854176  0.10165763     0.15000
H1204       H  0.66198793  0.94311209  0.12500699     0.15000
H1205       H  0.62808373  0.94426723  0.09187515     0.15000
H1206       H  0.67261622  0.83569958  0.20375353     0.13300
H1207       H  0.67822024  0.88287093  0.19891700     0.13300
H1208       H  0.55583670  0.83567967  0.06552936     0.13300
H1209       H  0.55905244  0.88322014  0.06368216     0.13300
H1210       H  0.61613892  0.83821080  0.13415110     0.26600
H1211       H  0.62161735  0.87804661  0.12983676     0.26600
O1212       O  0.71913439  0.48577816  0.68645648    -0.78100
C1213       C  0.76997086  0.55098978  0.69628246     0.83000
O1214       O  0.78172998  0.46934486  0.74385095    -0.79200
O1215       O  0.76467267  0.54990001  0.77205480    -0.80700
O1216       O  0.68581361  0.53305649  0.75621444    -0.80500
O1217       O  0.68704816  0.49242920  0.70902881    -0.79100
Zn1218     Zn  0.74599367  0.50279530  0.70486276     1.55700
O1219       O  0.71219981  0.56290651  0.75420497    -0.80500
Cd1220     Cd  0.70289617  0.50500615  0.73989296     1.59700
Cd1221     Cd  0.75654589  0.49086991  0.76225070     1.59600
O1222       O  0.69713910  0.47834629  0.76362748    -0.80500
O1223       O  0.73774718  0.51023419  0.73756036    -1.91000
Cd1224     Cd  0.74266109  0.54495374  0.74312528     1.59900
O1225       O  0.73225038  0.46868560  0.78085461    -0.80500
O1226       O  0.76125387  0.55992472  0.71547833    -0.79100
C1227       C  0.78347842  0.46659358  0.72106422     0.83400
C1228       C  0.69699687  0.48229225  0.69109023     0.83100
O1229       O  0.76394905  0.53001496  0.68888471    -0.78100
C1230       C  0.69231682  0.55431885  0.76168851     0.83900
O1231       O  0.77058668  0.47814334  0.70627776    -0.78200
C1232       C  0.70944393  0.46643067  0.77866768     0.84000
C1233       C  0.77441331  0.53715920  0.78832862     0.84300
O1234       O  0.77363221  0.51404912  0.78763904    -0.80600
O1235       O  0.94059225  0.02266183  0.47247073    -0.78100
C1236       C  0.94852435  0.95718138  0.52456246     0.83000
O1237       O  0.99213157  0.04121118  0.53719911    -0.79200
O1238       O  0.02442388  0.96341020  0.52434542    -0.80700
O1239       O  0.01137304  0.97401156  0.44226996    -0.80500
O1240       O  0.96418933  0.01725992  0.44096127    -0.79100
Zn1241     Zn  0.95690275  0.00490443  0.49983184     1.55700
O1242       O  0.01286363  0.94745284  0.47201026    -0.80500
Cd1243     Cd  0.99371105  0.00249955  0.45816702     1.59700
Cd1244     Cd  0.01257975  0.02108685  0.51249627     1.59600
O1245       O  0.01796289  0.02859516  0.45333814    -0.80500
O1246       O  0.99014518  0.99911355  0.49331330    -1.91000
Cd1247     Cd  0.99708615  0.96525874  0.50030040     1.59900
O1248       O  0.03113612  0.04343124  0.48851049    -0.80500
O1249       O  0.96880298  0.94941143  0.51760535    -0.79100
C1250       C  0.96925442  0.04088276  0.53923806     0.83400
C1251       C  0.94593999  0.02711265  0.45067571     0.83100
O1252       O  0.94013836  0.97704686  0.51652263    -0.78100
C1253       C  0.01943823  0.95456035  0.45127548     0.83900
O1254       O  0.95589011  0.02835733  0.52560424    -0.78200
C1255       C  0.03089470  0.04298851  0.46551845     0.84000
C1256       C  0.03930187  0.97779779  0.53416514     0.84300
O1257       O  0.03811366  0.00065854  0.53154822    -0.80600
C1258       C  0.53564527  0.04614683  0.73614450     0.80600
N1259       N  0.54485422  0.02653050  0.72458616    -0.77700
C1260       C  0.53412219  0.01713297  0.70450287     0.83100
N1261       N  0.51417765  0.02822001  0.69572949    -0.77600
C1262       C  0.50451648  0.04792477  0.70673095     0.83200
N1263       N  0.51538952  0.05672539  0.72698953    -0.79300
C1264       C  0.72570885  0.05208067  0.54669436     0.80600
N1265       N  0.71648788  0.06247922  0.52642939    -0.77700
C1266       C  0.69678718  0.05293274  0.51524372     0.83100
N1267       N  0.68636782  0.03286609  0.52455285    -0.77600
C1268       C  0.69549159  0.02164617  0.54422702     0.83200
N1269       N  0.71517691  0.03154802  0.55533020    -0.79300
C1270       C  0.53702323  0.22821147  0.54533336     0.80600
N1271       N  0.54512107  0.22028950  0.52362822    -0.77700
C1272       C  0.53358353  0.20208328  0.51172648     0.83100
N1273       N  0.51393600  0.19177633  0.52181205    -0.77600
C1274       C  0.50526310  0.19948208  0.54332226     0.83200
N1275       N  0.51704205  0.21774228  0.55489158    -0.79300
N1276       N  0.61458850  0.12840110  0.42625095    -0.36200
N1277       N  0.58941101  0.15481725  0.38778988    -0.56800
N1278       N  0.61691572  0.12783016  0.35283269    -0.36200
N1279       N  0.64413950  0.10395614  0.39138526    -0.56800
C1280       C  0.60339560  0.14622496  0.43850374     0.27400
C1281       C  0.63275762  0.12015991  0.44039256     0.27400
C1282       C  0.60609204  0.14388394  0.33809340     0.27400
C1283       C  0.63403698  0.11660698  0.33988765     0.27400
C1284       C  0.57540843  0.16090355  0.40660542     0.36000
C1285       C  0.57738506  0.16137817  0.36763799     0.36000
C1286       C  0.65072031  0.09160402  0.41129334     0.36000
C1287       C  0.65081165  0.09039356  0.37234729     0.36000
C1288       C  0.61457661  0.14939449  0.46069855    -0.21500
C1289       C  0.63315768  0.13300368  0.46184119    -0.21500
C1290       C  0.61636361  0.14268133  0.31541916    -0.21500
C1291       C  0.63400169  0.12546343  0.31655550    -0.21500
C1292       C  0.55443562  0.17169413  0.39838627    -0.22500
C1293       C  0.55579476  0.17217559  0.37365932    -0.22500
C1294       C  0.66189123  0.07021506  0.40487558    -0.22500
C1295       C  0.66194150  0.06944323  0.38016719    -0.22500
C1296       C  0.58208647  0.15813613  0.43105558    -0.17900
C1297       C  0.64761573  0.10004996  0.43510267    -0.17900
C1298       C  0.64854642  0.09742056  0.34803304    -0.17900
C1299       C  0.58597194  0.15819988  0.34393428    -0.17900
H1300       H  0.60953984  0.16190212  0.47479790     0.15000
H1301       H  0.64522436  0.13042394  0.47696564     0.15000
H1302       H  0.61133206  0.15273796  0.29950772     0.15000
H1303       H  0.64519773  0.11978341  0.30171895     0.15000
H1304       H  0.53978443  0.17866819  0.40906598     0.13300
H1305       H  0.54237030  0.17942700  0.36151117     0.13300
H1306       H  0.66924570  0.05659360  0.41670898     0.13300
H1307       H  0.66954694  0.05523242  0.36918880     0.13300
H1308       H  0.60879307  0.12102100  0.41004471     0.26600
H1309       H  0.61200205  0.12358944  0.37018280     0.26600
N1310       N  0.41834372  0.11606007  0.61810458    -0.36200
N1311       N  0.38096858  0.08851474  0.64200647    -0.56800
N1312       N  0.34533340  0.11112192  0.61039670    -0.36200
N1313       N  0.38273652  0.13618878  0.58432563    -0.56800
C1314       C  0.43188342  0.10096251  0.63175976     0.27400
C1315       C  0.43291540  0.12603288  0.60138525     0.27400
C1316       C  0.33207324  0.09352034  0.62060751     0.27400
C1317       C  0.33306988  0.11882367  0.59085395     0.27400
C1318       C  0.39922594  0.08528570  0.65786985     0.36000
C1319       C  0.36043546  0.08291865  0.65365410     0.36000
C1320       C  0.40214293  0.14945201  0.57811936     0.36000
C1321       C  0.36330751  0.14734543  0.57474611     0.36000
C1322       C  0.45541318  0.10149917  0.62365145    -0.21500
C1323       C  0.45610130  0.11741448  0.60467174    -0.21500
C1324       C  0.31115516  0.08987065  0.60732208    -0.21500
C1325       C  0.31178659  0.10590816  0.58848758    -0.21500
C1326       C  0.39025701  0.07743972  0.67971870    -0.22500
C1327       C  0.36565719  0.07587129  0.67702860    -0.22500
C1328       C  0.39505390  0.16880994  0.56397963    -0.22500
C1329       C  0.37041258  0.16753780  0.56195425    -0.22500
C1330       C  0.42391508  0.08787110  0.65222565    -0.17900
C1331       C  0.42624513  0.14379152  0.58420449    -0.17900
C1332       C  0.33935026  0.13900228  0.57686124    -0.17900
C1333       C  0.33730594  0.08248685  0.64284602    -0.17900
H1334       H  0.47063174  0.09170842  0.63087081     0.15000
H1335       H  0.47195929  0.12219941  0.59452727     0.15000
H1336       H  0.29664270  0.07743371  0.61119601     0.15000
H1337       H  0.29786900  0.10832659  0.57501281     0.15000
H1338       H  0.40042855  0.07293120  0.69574351     0.13300
H1339       H  0.35308821  0.06990231  0.69058185     0.13300
H1340       H  0.40644048  0.18243094  0.55595636     0.13300
H1341       H  0.35907009  0.17994133  0.55208455     0.13300
H1342       H  0.40049704  0.12048605  0.62089208     0.26600
H1343       H  0.36072911  0.11897424  0.61764538     0.26600
C1344       C  0.70571563  0.20457539  0.73205322     0.80600
N1345       N  0.69500618  0.22420037  0.72186511    -0.77700
C1346       C  0.70447053  0.23510748  0.70205344     0.83100
N1347       N  0.72549098  0.22643794  0.69300772    -0.77600
C1348       C  0.73677120  0.20707518  0.70310858     0.83200
N1349       N  0.72647170  0.19612978  0.72231080    -0.79300
N1350       N  0.61636470  0.31697823  0.62619311    -0.36200
N1351       N  0.64246979  0.35607029  0.64958002    -0.56800
N1352       N  0.61564575  0.39097841  0.61956039    -0.36200
N1353       N  0.58733690  0.35211871  0.59863757    -0.56800
C1354       C  0.62776355  0.30471991  0.64404207     0.27400
C1355       C  0.59884851  0.30245211  0.61712261     0.27400
C1356       C  0.62721502  0.40602746  0.63493077     0.27400
C1357       C  0.59829114  0.40398032  0.60842467     0.27400
C1358       C  0.65574620  0.33729973  0.65773060     0.36000
C1359       C  0.65546146  0.37634033  0.65381642     0.36000
C1360       C  0.57950665  0.33141036  0.58817412     0.36000
C1361       C  0.57874974  0.37060938  0.58518370     0.36000
C1362       C  0.61740552  0.28203345  0.64620889    -0.21500
C1363       C  0.59920575  0.28061127  0.62930459    -0.21500
C1364       C  0.61730395  0.42895562  0.63331313    -0.21500
C1365       C  0.59913646  0.42767644  0.61657357    -0.21500
C1366       C  0.67722626  0.34572617  0.66740919    -0.22500
C1367       C  0.67701818  0.37046747  0.66499438    -0.22500
C1368       C  0.56557787  0.33684332  0.56810363    -0.22500
C1369       C  0.56491747  0.36162381  0.56636646    -0.22500
C1370       C  0.64818737  0.31281465  0.65742641    -0.17900
C1371       C  0.58336895  0.30773848  0.59731696    -0.17900
C1372       C  0.58252274  0.39550207  0.59018144    -0.17900
C1373       C  0.64738272  0.40017439  0.64937392    -0.17900
H1374       H  0.62255111  0.26787733  0.65857853     0.15000
H1375       H  0.58763840  0.26513539  0.62622119     0.15000
H1376       H  0.62275959  0.44509006  0.64298290     0.15000
H1377       H  0.58800840  0.44263543  0.61090537     0.15000
H1378       H  0.69142397  0.33518025  0.67559108     0.13300
H1379       H  0.69099042  0.38276893  0.67102713     0.13300
H1380       H  0.55652547  0.32428917  0.55611200     0.13300
H1381       H  0.55539400  0.37185162  0.55277660     0.13300
H1382       H  0.62118664  0.33371114  0.61944498     0.26600
H1383       H  0.62032259  0.37324111  0.61599283     0.26600
N1384       N  0.61251307  0.93317586  0.61980321    -0.36200
N1385       N  0.58049828  0.89633275  0.64038872    -0.56800
N1386       N  0.60294682  0.84357078  0.60839111    -0.36200
N1387       N  0.63252959  0.89875701  0.58582963    -0.56800
C1388       C  0.59646320  0.94685746  0.63220374     0.27400
C1389       C  0.62400468  0.94794688  0.60399307     0.27400
C1390       C  0.58152229  0.85271174  0.61499995     0.27400
C1391       C  0.60830296  0.85423265  0.58729098     0.27400
C1392       C  0.57640129  0.91438633  0.65614120     0.36000
C1393       C  0.57195611  0.87570689  0.65032902     0.36000
C1394       C  0.64755955  0.91722433  0.58126181     0.36000
C1395       C  0.64213792  0.87876500  0.57573705     0.36000
C1396       C  0.59769222  0.97046349  0.62398131    -0.21500
C1397       C  0.61507810  0.97117389  0.60640803    -0.21500
C1398       C  0.57260016  0.86793394  0.59735553    -0.21500
C1399       C  0.58966200  0.86892632  0.57974604    -0.21500
C1400       C  0.56494958  0.90522482  0.67632489    -0.22500
C1401       C  0.56241432  0.88058790  0.67275822    -0.22500
C1402       C  0.66688568  0.90901345  0.56780150    -0.22500
C1403       C  0.66353490  0.88445712  0.56448606    -0.22500
C1404       C  0.58169609  0.93906700  0.65168423    -0.17900
C1405       C  0.64319227  0.94140243  0.58827265    -0.17900
C1406       C  0.63165113  0.85563679  0.57831979    -0.17900
C1407       C  0.57350898  0.85286985  0.63876992    -0.17900
H1408       H  0.58741670  0.98576171  0.63032465     0.15000
H1409       H  0.62065369  0.98707928  0.59662214     0.15000
H1410       H  0.55655157  0.87890341  0.59831903     0.15000
H1411       H  0.58948952  0.88074780  0.56427092     0.15000
H1412       H  0.55912871  0.91523455  0.69199741     0.13300
H1413       H  0.55419197  0.86790270  0.68500795     0.13300
H1414       H  0.68187366  0.91956196  0.56123129     0.13300
H1415       H  0.67535466  0.87230750  0.55493121     0.13300
H1416       H  0.61635632  0.91506912  0.62295027     0.26600
H1417       H  0.61474373  0.83372000  0.61926432     0.26600
N1418       N  0.81930255  0.12491674  0.62289393    -0.36200
N1419       N  0.85494397  0.09534636  0.59832748    -0.56800
N1420       N  0.89250043  0.12315104  0.62264205    -0.36200
N1421       N  0.85699166  0.15042989  0.64917614    -0.56800
C1422       C  0.80545339  0.10682841  0.61390937     0.27400
C1423       C  0.80646844  0.13605724  0.64032805     0.27400
C1424       C  0.90523375  0.10482798  0.61311049     0.27400
C1425       C  0.90638851  0.13334004  0.63991468     0.27400
C1426       C  0.83507208  0.08874208  0.58575017     0.36000
C1427       C  0.87416175  0.08856951  0.58514840     0.36000
C1428       C  0.83801766  0.16393997  0.65597886     0.36000
C1429       C  0.87692401  0.16279130  0.65588981     0.36000
C1430       C  0.78356263  0.10653545  0.62576416    -0.21500
C1431       C  0.78420675  0.12497071  0.64241192    -0.21500
C1432       C  0.92742319  0.10321159  0.62453493    -0.21500
C1433       C  0.92819324  0.12130546  0.64141660    -0.21500
C1434       C  0.84168958  0.07742479  0.56450564    -0.22500
C1435       C  0.86651564  0.07724239  0.56416522    -0.22500
C1436       C  0.84590184  0.18482566  0.66740666    -0.22500
C1437       C  0.87058572  0.18399421  0.66754043    -0.22500
C1438       C  0.81120287  0.09185001  0.59401327    -0.17900
C1439       C  0.81371545  0.15688419  0.65335776    -0.17900
C1440       C  0.90070558  0.15453138  0.65268961    -0.17900
C1441       C  0.89838368  0.09134551  0.59268558    -0.17900
H1442       H  0.76852359  0.09447546  0.62251613     0.15000
H1443       H  0.76979468  0.12986791  0.65447185     0.15000
H1444       H  0.94188634  0.09079823  0.62060944     0.15000
H1445       H  0.94338107  0.12541701  0.65298908     0.15000
H1446       H  0.82987471  0.06989962  0.55084332     0.13300
H1447       H  0.87765270  0.06957213  0.55019128     0.13300
H1448       H  0.83501404  0.19903398  0.67508861     0.13300
H1449       H  0.88249575  0.19743733  0.67534223     0.13300
H1450       H  0.83585051  0.13045881  0.61630527     0.26600
H1451       H  0.87619820  0.12966014  0.61621592     0.26600
N1452       N  0.62887567  0.11938021  0.81479400    -0.36200
N1453       N  0.59900394  0.10245150  0.85434263    -0.56800
N1454       N  0.63487075  0.12103887  0.88895024    -0.36200
N1455       N  0.67430940  0.15251243  0.84876916    -0.56800
C1456       C  0.61150160  0.10825122  0.80169053     0.27400
C1457       C  0.64467620  0.12943039  0.79932282     0.27400
C1458       C  0.61670402  0.11574674  0.90402297     0.27400
C1459       C  0.65071362  0.13500126  0.90132143     0.27400
C1460       C  0.58680934  0.09189679  0.83591657     0.36000
C1461       C  0.58950722  0.09387231  0.87500483     0.36000
C1462       C  0.67496529  0.13730785  0.82961340     0.36000
C1463       C  0.67911382  0.13858773  0.86827756     0.36000
C1464       C  0.61663886  0.11115660  0.77737289    -0.21500
C1465       C  0.63738028  0.12487318  0.77589911    -0.21500
C1466       C  0.62124886  0.12622784  0.92637019    -0.21500
C1467       C  0.64265797  0.13854671  0.92460020    -0.21500
C1468       C  0.56908042  0.07685776  0.84502782    -0.22500
C1469       C  0.57103049  0.07782654  0.86968596    -0.22500
C1470       C  0.67964093  0.11393448  0.83701409    -0.22500
C1471       C  0.68246748  0.11479034  0.86145844    -0.22500
C1472       C  0.59142775  0.09530198  0.81096388    -0.17900
C1473       C  0.66528650  0.14264158  0.80679478    -0.17900
C1474       C  0.67194639  0.14488814  0.89160864    -0.17900
C1475       C  0.59664013  0.10088375  0.89862283    -0.17900
H1476       H  0.60646599  0.10418938  0.76218604     0.15000
H1477       H  0.64636782  0.13023815  0.75953821     0.15000
H1478       H  0.61017892  0.12524552  0.94229640     0.15000
H1479       H  0.65134093  0.14875447  0.93886843     0.15000
H1480       H  0.55619970  0.06606109  0.83499949     0.13300
H1481       H  0.55985804  0.06808590  0.88226880     0.13300
H1482       H  0.67927588  0.09777656  0.82598749     0.13300
H1483       H  0.68427938  0.09937554  0.87325278     0.13300
H1484       H  0.63020349  0.12072550  0.83316142     0.26600
H1485       H  0.63671430  0.11519019  0.87147160     0.26600
C1486       C  0.01475051  0.70971641  0.54049736     0.80600
N1487       N  0.02516839  0.72999176  0.54985618    -0.77700
C1488       C  0.04555243  0.73946674  0.54018986     0.83100
N1489       N  0.05505816  0.72865737  0.52036399    -0.77600
C1490       C  0.04453095  0.70872158  0.51037434     0.83200
N1491       N  0.02455940  0.69925587  0.52073848    -0.79300
N1492       N  0.12016118  0.62196634  0.42729413    -0.36200
N1493       N  0.14136769  0.59070198  0.39088494    -0.56800
N1494       N  0.11559121  0.61803375  0.35392003    -0.36200
N1495       N  0.09221693  0.64708157  0.39015898    -0.56800
C1496       C  0.13019725  0.60474924  0.44142910     0.27400
C1497       C  0.10464989  0.63475634  0.44103471     0.27400
C1498       C  0.12375805  0.59896078  0.34125384     0.27400
C1499       C  0.09779745  0.62811660  0.34072321     0.27400
C1500       C  0.15472159  0.58393489  0.41010034     0.36000
C1501       C  0.15296499  0.58278105  0.37106111     0.36000
C1502       C  0.08684711  0.66125894  0.40920511     0.36000
C1503       C  0.08412184  0.65868256  0.37032215     0.36000
C1504       C  0.12119147  0.60698330  0.46457091    -0.21500
C1505       C  0.10487116  0.62559879  0.46422334    -0.21500
C1506       C  0.11101317  0.59682439  0.31981753    -0.21500
C1507       C  0.09468252  0.61530946  0.31942744    -0.21500
C1508       C  0.17471760  0.57117362  0.40242457    -0.22500
C1509       C  0.17368511  0.57060495  0.37764133    -0.22500
C1510       C  0.07498938  0.68185182  0.40139601    -0.22500
C1511       C  0.07304077  0.68007656  0.37680336    -0.22500
C1512       C  0.14829909  0.58806461  0.43442383    -0.17900
C1513       C  0.09120734  0.65525504  0.43363633    -0.17900
C1514       C  0.08562182  0.64960675  0.34656345    -0.17900
C1515       C  0.14400580  0.58498037  0.34729766    -0.17900
H1516       H  0.12594444  0.59641609  0.48022243     0.15000
H1517       H  0.09463051  0.63193834  0.47948396     0.15000
H1518       H  0.11360974  0.58362546  0.30565675     0.15000
H1519       H  0.08225700  0.61906039  0.30487267     0.15000
H1520       H  0.18855271  0.56303269  0.41347778     0.13300
H1521       H  0.18643520  0.56185723  0.36585333     0.13300
H1522       H  0.06822065  0.69656267  0.41226512     0.13300
H1523       H  0.06446591  0.69304805  0.36504810     0.13300
H1524       H  0.12466430  0.62574355  0.40962725     0.26600
H1525       H  0.12315804  0.62491693  0.36965018     0.26600
C1526       C  0.23905384  0.71753890  0.70015593     0.80600
N1527       N  0.22675648  0.73527436  0.68852640    -0.77700
C1528       C  0.20598636  0.74454254  0.69766365     0.83100
N1529       N  0.19742369  0.73567035  0.71869537    -0.77600
C1530       C  0.20935569  0.71793784  0.73052229     0.83200
N1531       N  0.22991300  0.70895374  0.72105365    -0.79300
C1532       C  0.19704358  0.51950047  0.54993368     0.80600
N1533       N  0.18870016  0.52758886  0.52833739    -0.77700
C1534       C  0.19781370  0.54778216  0.51782992     0.83100
N1535       N  0.21555320  0.56019035  0.52958489    -0.77600
C1536       C  0.22421809  0.55250845  0.55121204     0.83200
N1537       N  0.21488170  0.53213333  0.56117712    -0.79300
N1538       N  0.31900048  0.63185405  0.62451693    -0.36200
N1539       N  0.35947454  0.65282473  0.65128923    -0.56800
N1540       N  0.39213274  0.62341791  0.62296203    -0.36200
N1541       N  0.35186794  0.60045895  0.59813470    -0.56800
C1542       C  0.30734593  0.64380492  0.64228566     0.27400
C1543       C  0.30338626  0.61551393  0.61494050     0.27400
C1544       C  0.40736373  0.63223698  0.63986833     0.27400
C1545       C  0.40321342  0.60456091  0.61234667     0.27400
C1546       C  0.34181529  0.66737671  0.65947648     0.36000
C1547       C  0.38054272  0.66303423  0.65820898     0.36000
C1548       C  0.33126104  0.59573326  0.58591540     0.36000
C1549       C  0.37015735  0.59180503  0.58468959     0.36000
C1550       C  0.28389272  0.63533761  0.64360130    -0.21500
C1551       C  0.28155247  0.61724165  0.62678291    -0.21500
C1552       C  0.42839286  0.61884419  0.64002354    -0.21500
C1553       C  0.42571079  0.60124906  0.62275397    -0.21500
C1554       C  0.35168497  0.68664378  0.67215535    -0.22500
C1555       C  0.37622829  0.68388240  0.67137605    -0.22500
C1556       C  0.33647667  0.58380645  0.56459483    -0.22500
C1557       C  0.36112969  0.58126508  0.56384971    -0.22500
C1558       C  0.31690420  0.66273144  0.65683330    -0.17900
C1559       C  0.30782215  0.59987911  0.59505746    -0.17900
C1560       C  0.39466568  0.59198783  0.59187909    -0.17900
C1561       C  0.40359252  0.65331772  0.65358387    -0.17900
H1562       H  0.26988539  0.64132755  0.65564065     0.15000
H1563       H  0.26542237  0.60670337  0.62358646     0.15000
H1564       H  0.44426083  0.62170945  0.65103958     0.15000
H1565       H  0.43916491  0.58805872  0.61786659     0.15000
H1566       H  0.34220070  0.70105825  0.68121160     0.13300
H1567       H  0.38938073  0.69578750  0.67966071     0.13300
H1568       H  0.32381028  0.57722449  0.55121877     0.13300
H1569       H  0.37122070  0.57240908  0.54977075     0.13300
H1570       H  0.33622306  0.63554789  0.61847176     0.26600
H1571       H  0.37604138  0.63116297  0.61754263     0.26600
C1572       C  0.04299956  0.55309509  0.72960783     0.80600
N1573       N  0.04934214  0.53133350  0.72012914    -0.77700
C1574       C  0.03681523  0.52159079  0.70130292     0.83100
N1575       N  0.01827077  0.53436110  0.69157267    -0.77600
C1576       C  0.01181652  0.55632016  0.70065178     0.83200
N1577       N  0.02445749  0.56551897  0.71958887    -0.79300
N1578       N  0.11174762  0.43271790  0.62284812    -0.36200
N1579       N  0.08595521  0.39549946  0.64816856    -0.56800
N1580       N  0.11310550  0.35843617  0.62132234    -0.36200
N1581       N  0.14121622  0.39569471  0.59839408    -0.56800
C1582       C  0.10005823  0.44621931  0.63951775     0.27400
C1583       C  0.12969886  0.44646025  0.61381460     0.27400
C1584       C  0.10292893  0.34495811  0.63876516     0.27400
C1585       C  0.13089015  0.34497099  0.61158393     0.27400
C1586       C  0.07237534  0.41455731  0.65494257     0.36000
C1587       C  0.07389715  0.37538955  0.65472115     0.36000
C1588       C  0.14983238  0.41568224  0.58746728     0.36000
C1589       C  0.15011990  0.37641505  0.58630019     0.36000
C1590       C  0.11066295  0.46887892  0.64093398    -0.21500
C1591       C  0.12930335  0.46904638  0.62474268    -0.21500
C1592       C  0.11416102  0.32263649  0.63985573    -0.21500
C1593       C  0.13156604  0.32254812  0.62256019    -0.21500
C1594       C  0.05153797  0.40651082  0.66592189    -0.22500
C1595       C  0.05251797  0.38167151  0.66581671    -0.22500
C1596       C  0.16465569  0.40902792  0.56857218    -0.22500
C1597       C  0.16487703  0.38417591  0.56788644    -0.22500
C1598       C  0.07939121  0.43905025  0.65267712    -0.17900
C1599       C  0.14550545  0.43983665  0.59493240    -0.17900
C1600       C  0.14604535  0.35193578  0.59249990    -0.17900
C1601       C  0.08318319  0.35166122  0.65320119    -0.17900
H1602       H  0.10541030  0.48383656  0.65232234     0.15000
H1603       H  0.14108120  0.48421123  0.62122498     0.15000
H1604       H  0.11021487  0.30778916  0.65182479     0.15000
H1605       H  0.14346833  0.30762695  0.61874195     0.15000
H1606       H  0.03734226  0.41737216  0.67358602     0.13300
H1607       H  0.03932458  0.36960948  0.67354550     0.13300
H1608       H  0.17449049  0.42084403  0.55665050     0.13300
H1609       H  0.17490731  0.37309259  0.55541492     0.13300
H1610       H  0.10692457  0.41566114  0.61681967     0.26600
H1611       H  0.10745952  0.37531221  0.61569673     0.26600
N1612       N  0.92652708  0.63798523  0.61989943    -0.36200
N1613       N  0.89201531  0.61131116  0.64949293    -0.56800
N1614       N  0.85378851  0.63512735  0.62413884    -0.36200
N1615       N  0.88826863  0.66412133  0.59657787    -0.56800
C1616       C  0.94057779  0.62890715  0.63757962     0.27400
C1617       C  0.93851606  0.65687996  0.61022018     0.27400
C1618       C  0.84155586  0.62492831  0.64243260     0.27400
C1619       C  0.83947784  0.65224598  0.61462438     0.27400
C1620       C  0.91217683  0.59874871  0.65426829     0.36000
C1621       C  0.87342697  0.59749309  0.65683299     0.36000
C1622       C  0.90679104  0.67032240  0.58214064     0.36000
C1623       C  0.86780984  0.66833494  0.58408669     0.36000
C1624       C  0.96169773  0.64218238  0.63928563    -0.21500
C1625       C  0.96037555  0.65989853  0.62202870    -0.21500
C1626       C  0.81917931  0.63566279  0.64456515    -0.21500
C1627       C  0.81789504  0.65302256  0.62706200    -0.21500
C1628       C  0.90643679  0.57695221  0.66509306    -0.22500
C1629       C  0.88175919  0.57615034  0.66669467    -0.22500
C1630       C  0.89805890  0.67843521  0.56022665    -0.22500
C1631       C  0.87327919  0.67755934  0.56161019    -0.22500
C1632       C  0.93564310  0.60770554  0.65068222    -0.17900
C1633       C  0.93122423  0.66980341  0.58948306    -0.17900
C1634       C  0.84440732  0.66532550  0.59350445    -0.17900
C1635       C  0.84920360  0.60471587  0.65569188    -0.17900
H1636       H  0.97669536  0.63911025  0.65138633     0.15000
H1637       H  0.97416275  0.67316380  0.61822155     0.15000
H1638       H  0.80503885  0.63109287  0.65706749     0.15000
H1639       H  0.80248572  0.66435751  0.62341437     0.15000
H1640       H  0.91874981  0.56320865  0.67136040     0.13300
H1641       H  0.87119260  0.56169689  0.67439850     0.13300
H1642       H  0.90843943  0.68476471  0.54507793     0.13300
H1643       H  0.86073114  0.68300989  0.54770150     0.13300
H1644       H  0.91059592  0.63035089  0.61352041     0.26600
H1645       H  0.87009674  0.62943328  0.61713596     0.26600
N1646       N  0.12713591  0.82823226  0.61309602    -0.36200
N1647       N  0.15416291  0.86443529  0.64007156    -0.56800
N1648       N  0.12760268  0.90215460  0.61514340    -0.36200
N1649       N  0.10284472  0.86586323  0.58577120    -0.56800
C1650       C  0.14474414  0.81458312  0.62295215     0.27400
C1651       C  0.11732249  0.81533407  0.59478002     0.27400
C1652       C  0.14463352  0.91543948  0.62650881     0.27400
C1653       C  0.11785297  0.91624112  0.59790024     0.27400
C1654       C  0.16075002  0.84454525  0.65241879     0.36000
C1655       C  0.16059406  0.88361973  0.65374877     0.36000
C1656       C  0.08952561  0.84654119  0.57883830     0.36000
C1657       C  0.09013332  0.88573802  0.57974630     0.36000
C1658       C  0.14613218  0.79274098  0.61077250    -0.21500
C1659       C  0.12878309  0.79319210  0.59301633    -0.21500
C1660       C  0.14558159  0.93835365  0.61653652    -0.21500
C1661       C  0.12867767  0.93885021  0.59843085    -0.21500
C1662       C  0.17172804  0.85109513  0.67394580    -0.22500
C1663       C  0.17158257  0.87591016  0.67481830    -0.22500
C1664       C  0.06832055  0.85416335  0.56811597    -0.22500
C1665       C  0.06874768  0.87903429  0.56859712    -0.22500
C1666       C  0.15850495  0.82068080  0.64360441    -0.17900
C1667       C  0.09707150  0.82223945  0.58090163    -0.17900
C1668       C  0.09833383  0.90978941  0.58285027    -0.17900
C1669       C  0.15831518  0.90794626  0.64656362    -0.17900
H1670       H  0.15819735  0.77789661  0.61449727     0.15000
H1671       H  0.12485489  0.77874752  0.58040070     0.15000
H1672       H  0.15709133  0.95325477  0.62190280     0.15000
H1673       H  0.12460292  0.95422179  0.58715688     0.15000
H1674       H  0.17932299  0.83925625  0.68743552     0.13300
H1675       H  0.17911193  0.88701667  0.68907637     0.13300
H1676       H  0.05423057  0.84297724  0.56041869     0.13300
H1677       H  0.05502946  0.89084182  0.56137384     0.13300
H1678       H  0.12094336  0.84465622  0.61961738     0.26600
H1679       H  0.12188443  0.88499033  0.61990214     0.26600
N1680       N  0.13177330  0.63243185  0.81156272    -0.36200
N1681       N  0.10299487  0.60821398  0.84741217    -0.56800
N1682       N  0.13291909  0.63002723  0.88512281    -0.36200
N1683       N  0.15960869  0.65664032  0.84948521    -0.56800
C1684       C  0.11391749  0.62286531  0.79775812     0.27400
C1685       C  0.14185189  0.65079108  0.79908334     0.27400
C1686       C  0.11355247  0.62281685  0.89777997     0.27400
C1687       C  0.14465522  0.64641737  0.89888764     0.27400
C1688       C  0.09690754  0.59474380  0.82794163     0.36000
C1689       C  0.09538410  0.59592710  0.86695148     0.36000
C1690       C  0.17153332  0.66491767  0.83011000     0.36000
C1691       C  0.17359299  0.66153071  0.86888273     0.36000
C1692       C  0.11266992  0.63524263  0.77615578    -0.21500
C1693       C  0.13026247  0.65285528  0.77698799    -0.21500
C1694       C  0.11304792  0.63464127  0.91981039    -0.21500
C1695       C  0.13273472  0.64952170  0.92054604    -0.21500
C1696       C  0.08533470  0.57378213  0.83528287    -0.22500
C1697       C  0.08411932  0.57470829  0.85998763    -0.22500
C1698       C  0.19318900  0.67532671  0.83727131    -0.22500
C1699       C  0.19447561  0.67317384  0.86189624    -0.22500
C1700       C  0.09994705  0.60220257  0.80368850    -0.17900
C1701       C  0.16248906  0.66434198  0.80625516    -0.17900
C1702       C  0.16639564  0.65790386  0.89289650    -0.17900
C1703       C  0.09746024  0.60438248  0.89086310    -0.17900
H1704       H  0.10056559  0.63174112  0.76121309     0.15000
H1705       H  0.13435920  0.66545682  0.76273287     0.15000
H1706       H  0.10001523  0.63251238  0.93404142     0.15000
H1707       H  0.13775657  0.66117398  0.93544346     0.15000
H1708       H  0.07822033  0.55941527  0.82404478     0.13300
H1709       H  0.07593721  0.56132422  0.87151538     0.13300
H1710       H  0.20655277  0.68381384  0.82599566     0.13300
H1711       H  0.20882762  0.67986212  0.87338671     0.13300
H1712       H  0.13783744  0.62563222  0.82787478     0.26600
H1713       H  0.13868458  0.62303787  0.86876945     0.26600
C1714       C  0.76335791  0.30437766  0.29075384     0.80600
N1715       N  0.77375968  0.31711602  0.27259111    -0.77700
C1716       C  0.79494269  0.30974502  0.26277841     0.83100
N1717       N  0.80551979  0.28927801  0.27114525    -0.77600
C1718       C  0.79530972  0.27630185  0.28906837     0.83200
N1719       N  0.77431786  0.28404379  0.29870147    -0.79300
N1720       N  0.67003060  0.37405856  0.36832614    -0.36200
N1721       N  0.63192133  0.39823329  0.39506221    -0.56800
N1722       N  0.59673028  0.37026369  0.36797490    -0.36200
N1723       N  0.63478525  0.34828460  0.33940722    -0.56800
C1724       C  0.68252393  0.39202935  0.37934193     0.27400
C1725       C  0.68400604  0.36520860  0.35046535     0.27400
C1726       C  0.58245112  0.38659405  0.37888910     0.27400
C1727       C  0.58397605  0.36095224  0.34937557     0.27400
C1728       C  0.65107283  0.40573365  0.40817828     0.36000
C1729       C  0.61212072  0.40350481  0.40802498     0.36000
C1730       C  0.65467098  0.33651222  0.33212651     0.36000
C1731       C  0.61581327  0.33516470  0.33159511     0.36000
C1732       C  0.70475812  0.39450792  0.36836775    -0.21500
C1733       C  0.70574447  0.37751131  0.35030302    -0.21500
C1734       C  0.56027680  0.38735303  0.36731823    -0.21500
C1735       C  0.56126045  0.37118977  0.34867728    -0.21500
C1736       C  0.64337008  0.41598457  0.42960359    -0.22500
C1737       C  0.61863408  0.41478701  0.42938219    -0.22500
C1738       C  0.64833374  0.31578560  0.31948858    -0.22500
C1739       C  0.62360640  0.31501276  0.31901498    -0.22500
C1740       C  0.67517796  0.40513823  0.40007707    -0.17900
C1741       C  0.67827456  0.34544440  0.33515455    -0.17900
C1742       C  0.59168252  0.34246939  0.33380509    -0.17900
C1743       C  0.58828352  0.39977069  0.39987878    -0.17900
H1744       H  0.71897703  0.40708707  0.37307423     0.15000
H1745       H  0.72082240  0.37448913  0.33844794     0.15000
H1746       H  0.54480990  0.39819256  0.37193539     0.15000
H1747       H  0.54676198  0.36726125  0.33616450     0.15000
H1748       H  0.65436539  0.42390404  0.44371405     0.13300
H1749       H  0.60680268  0.42158029  0.44322610     0.13300
H1750       H  0.66025598  0.30299615  0.31092723     0.13300
H1751       H  0.61262229  0.30149577  0.31004901     0.13300
H1752       H  0.65357881  0.36717344  0.37372199     0.26600
H1753       H  0.61360416  0.36474829  0.37373543     0.26600
C1754       C  0.75351370  0.45007916  0.45365953     0.80600
N1755       N  0.76291244  0.47055634  0.44389499    -0.77700
C1756       C  0.78214052  0.48180606  0.45428649     0.83100
N1757       N  0.79183512  0.47214037  0.47446900    -0.77600
C1758       C  0.78246884  0.45209454  0.48489929     0.83200
N1759       N  0.76332850  0.44097740  0.47422660    -0.79300
C1760       C  0.95120245  0.49136970  0.29981089     0.80600
N1761       N  0.94229576  0.48162380  0.27906288    -0.77700
C1762       C  0.95335095  0.46271626  0.26799417     0.83100
N1763       N  0.97383689  0.45363442  0.27798727    -0.77600
C1764       C  0.98312800  0.46324542  0.29865653     0.83200
N1765       N  0.97141644  0.48176813  0.30950408    -0.79300
C1766       C  0.98115949  0.30785841  0.45659888     0.80600
N1767       N  0.97078284  0.28854349  0.44528462    -0.77700
C1768       C  0.95059476  0.27789998  0.45421395     0.83100
N1769       N  0.94093023  0.28664025  0.47492082    -0.77600
C1770       C  0.95118082  0.30570577  0.48661769     0.83200
N1771       N  0.97119582  0.31617357  0.47726145    -0.79300
N1772       N  0.06921588  0.38542457  0.38144912    -0.36200
N1773       N  0.10739852  0.35949797  0.40664056    -0.56800
N1774       N  0.14280178  0.38922039  0.38233215    -0.36200
N1775       N  0.10447544  0.41302466  0.35527372    -0.56800
C1776       C  0.05703810  0.36624825  0.39026411     0.27400
C1777       C  0.05561648  0.39502994  0.36359957     0.27400
C1778       C  0.15701741  0.37206405  0.39204801     0.27400
C1779       C  0.15528130  0.39926709  0.36414682     0.27400
C1780       C  0.08815288  0.35099823  0.41879066     0.36000
C1781       C  0.12720621  0.35343120  0.41950503     0.36000
C1782       C  0.08463095  0.42561009  0.34914531     0.36000
C1783       C  0.12349676  0.42652353  0.34856941     0.36000
C1784       C  0.03539802  0.36369582  0.37792331    -0.21500
C1785       C  0.03462132  0.38169948  0.36091995    -0.21500
C1786       C  0.17893374  0.37157639  0.38023403    -0.21500
C1787       C  0.17776994  0.38864108  0.36250874    -0.21500
C1788       C  0.09577837  0.33932237  0.43949758    -0.22500
C1789       C  0.12055954  0.34069009  0.43983902    -0.22500
C1790       C  0.09108788  0.44731232  0.33855766    -0.22500
C1791       C  0.11579503  0.44774611  0.33792911    -0.22500
C1792       C  0.06405454  0.35219461  0.41036098    -0.17900
C1793       C  0.06095371  0.41652699  0.35095279    -0.17900
C1794       C  0.14754846  0.41875520  0.34991621    -0.17900
C1795       C  0.15115918  0.35748910  0.41190872    -0.17900
H1796       H  0.02146205  0.35040299  0.38104676     0.15000
H1797       H  0.01996725  0.38503748  0.34847213     0.15000
H1798       H  0.19428451  0.36021290  0.38402031     0.15000
H1799       H  0.19206531  0.39301320  0.35011381     0.15000
H1800       H  0.08468773  0.33024681  0.45262710     0.13300
H1801       H  0.13235044  0.33296100  0.45331408     0.13300
H1802       H  0.07926726  0.46110504  0.33150311     0.13300
H1803       H  0.12683113  0.46190918  0.33034122     0.13300
H1804       H  0.08504298  0.39264103  0.38847153     0.26600
H1805       H  0.12607207  0.39459023  0.38854635     0.26600
N1806       N  0.86937804  0.38504311  0.57183639    -0.36200
N1807       N  0.84220470  0.40982238  0.60957446    -0.56800
N1808       N  0.87376220  0.38863086  0.64526650    -0.36200
N1809       N  0.89875621  0.36166222  0.60752462    -0.56800
C1810       C  0.84957099  0.39245192  0.55975982     0.27400
C1811       C  0.87943728  0.36706089  0.55874335     0.27400
C1812       C  0.85650910  0.39797576  0.65951881     0.27400
C1813       C  0.88558787  0.37203468  0.65848416     0.27400
C1814       C  0.83283658  0.42091683  0.59006023     0.36000
C1815       C  0.83521985  0.42273543  0.62900407     0.36000
C1816       C  0.91081878  0.35441434  0.58775480     0.36000
C1817       C  0.91246735  0.35560046  0.62665545     0.36000
C1818       C  0.84697689  0.37902629  0.53876196    -0.21500
C1819       C  0.86572915  0.36285048  0.53822454    -0.21500
C1820       C  0.85766875  0.38755713  0.68214411    -0.21500
C1821       C  0.87601021  0.37116731  0.68149819    -0.21500
C1822       C  0.81953410  0.44083547  0.59712050    -0.22500
C1823       C  0.82096087  0.44192143  0.62185725    -0.22500
C1824       C  0.93232372  0.34364218  0.59438462    -0.22500
C1825       C  0.93321558  0.34412998  0.61909507    -0.22500
C1826       C  0.83501465  0.41235990  0.56616088    -0.17900
C1827       C  0.90154858  0.35559035  0.56405555    -0.17900
C1828       C  0.90548636  0.35834941  0.65084423    -0.17900
C1829       C  0.84048601  0.41651242  0.65312512    -0.17900
H1830       H  0.83318654  0.38094535  0.52507650     0.15000
H1831       H  0.86926194  0.34990587  0.52404473     0.15000
H1832       H  0.84657875  0.39147149  0.69760916     0.15000
H1833       H  0.88176582  0.36005645  0.69643316     0.15000
H1834       H  0.80962138  0.45311257  0.58567897     0.13300
H1835       H  0.81242470  0.45521088  0.63327742     0.13300
H1836       H  0.94568296  0.33570457  0.58272185     0.13300
H1837       H  0.94736503  0.33666465  0.63024425     0.13300
H1838       H  0.87661673  0.39318322  0.58713944     0.26600
H1839       H  0.87802201  0.39409460  0.62796566     0.26600
N1840       N  0.87301022  0.39317833  0.17683802    -0.36200
N1841       N  0.84687277  0.36519199  0.14110647    -0.56800
N1842       N  0.86984896  0.39360712  0.10305489    -0.36200
N1843       N  0.89591018  0.42221634  0.13944164    -0.56800
C1844       C  0.85631572  0.38264576  0.19119116     0.27400
C1845       C  0.88479950  0.40991084  0.19035872     0.27400
C1846       C  0.86527782  0.37201163  0.09249128     0.27400
C1847       C  0.88882613  0.40325633  0.09134829     0.27400
C1848       C  0.83625333  0.35564465  0.16074021     0.36000
C1849       C  0.83767736  0.35352821  0.12169331     0.36000
C1850       C  0.90997158  0.42873664  0.15838763     0.36000
C1851       C  0.90641207  0.43116336  0.11940450     0.36000
C1852       C  0.85764635  0.39295035  0.21398360    -0.21500
C1853       C  0.87564866  0.40990679  0.21351051    -0.21500
C1854       C  0.88189076  0.36763576  0.07453081    -0.21500
C1855       C  0.89739962  0.38704879  0.07451054    -0.21500
C1856       C  0.82032940  0.33757178  0.15365543    -0.22500
C1857       C  0.82097463  0.33649845  0.12889723    -0.22500
C1858       C  0.92992682  0.44127937  0.15034117    -0.22500
C1859       C  0.92773723  0.44277460  0.12569465    -0.22500
C1860       C  0.84021186  0.36354599  0.18484426    -0.17900
C1861       C  0.90432850  0.42457643  0.18288850    -0.17900
C1862       C  0.89816146  0.42653290  0.09548179    -0.17900
C1863       C  0.84573114  0.35678825  0.09785167    -0.17900
H1864       H  0.84674311  0.38874346  0.22948745     0.15000
H1865       H  0.88124063  0.42111130  0.22855170     0.15000
H1866       H  0.88305458  0.35184368  0.06307623     0.15000
H1867       H  0.91312201  0.38915672  0.06333306     0.15000
H1868       H  0.80931894  0.32632228  0.16505340     0.13300
H1869       H  0.81089912  0.32409566  0.11757475     0.13300
H1870       H  0.94457470  0.44850689  0.16110757     0.13300
H1871       H  0.94103905  0.45041769  0.11378057     0.13300
H1872       H  0.87710146  0.38859266  0.15921365     0.26600
H1873       H  0.85960751  0.40207708  0.11630530     0.26600
N1874       N  0.86140114  0.57044950  0.37797844    -0.36200
N1875       N  0.89178743  0.60781792  0.35721521    -0.56800
N1876       N  0.86492967  0.64398996  0.38359405    -0.36200
N1877       N  0.83622738  0.60667609  0.40646358    -0.56800
C1878       C  0.87973725  0.55727805  0.36888973     0.27400
C1879       C  0.85044539  0.55674424  0.39483318     0.27400
C1880       C  0.88313957  0.65761372  0.37507125     0.27400
C1881       C  0.85413163  0.65702288  0.40099767     0.27400
C1882       C  0.89909278  0.58882236  0.34386079     0.36000
C1883       C  0.90078999  0.62780619  0.34665332     0.36000
C1884       C  0.82220093  0.58728964  0.41112005     0.36000
C1885       C  0.82398499  0.62639630  0.41384636     0.36000
C1886       C  0.88045414  0.53495610  0.38008261    -0.21500
C1887       C  0.86200154  0.53462942  0.39650093    -0.21500
C1888       C  0.88385085  0.67959830  0.38710888    -0.21500
C1889       C  0.86558631  0.67920013  0.40352459    -0.21500
C1890       C  0.91308762  0.59675232  0.32486565    -0.22500
C1891       C  0.91428372  0.62147844  0.32673283    -0.22500
C1892       C  0.80100005  0.59468086  0.42184800    -0.22500
C1893       C  0.80211301  0.61950437  0.42353814    -0.22500
C1894       C  0.89491322  0.56437562  0.34979370    -0.17900
C1895       C  0.82922647  0.56300834  0.40737982    -0.17900
C1896       C  0.83311709  0.65029717  0.41337671    -0.17900
C1897       C  0.89791252  0.65157315  0.35545739    -0.17900
H1898       H  0.89280416  0.52031361  0.37654635     0.15000
H1899       H  0.85732856  0.51964282  0.40803518     0.15000
H1900       H  0.89597309  0.69459856  0.38411629     0.15000
H1901       H  0.86097888  0.69382415  0.41561103     0.15000
H1902       H  0.92185192  0.58584829  0.31132048     0.13300
H1903       H  0.92407674  0.63341673  0.31489204     0.13300
H1904       H  0.78641308  0.58336019  0.42804817     0.13300
H1905       H  0.78858969  0.63111673  0.43134245     0.13300
H1906       H  0.85561724  0.58715340  0.37180812     0.26600
H1907       H  0.85911177  0.62755124  0.37672624     0.26600
N1908       N  0.87593540  0.19149907  0.37096463    -0.36200
N1909       N  0.84578825  0.15609823  0.34718846    -0.56800
N1910       N  0.86961743  0.11835323  0.37496880    -0.36200
N1911       N  0.90188369  0.15359545  0.39670055    -0.56800
C1912       C  0.86706543  0.20442134  0.35220159     0.27400
C1913       C  0.89561579  0.20341456  0.37933153     0.27400
C1914       C  0.85711665  0.10505356  0.35864926     0.27400
C1915       C  0.88670606  0.10364717  0.38430976     0.27400
C1916       C  0.83451581  0.17631682  0.33974769     0.36000
C1917       C  0.83068054  0.13751037  0.34263735     0.36000
C1918       C  0.90991803  0.17316629  0.40900115     0.36000
C1919       C  0.90763144  0.13399615  0.41000066     0.36000
C1920       C  0.88144321  0.22453854  0.34845284    -0.21500
C1921       C  0.89933451  0.22402821  0.36574814    -0.21500
C1922       C  0.86615148  0.08172596  0.35787063    -0.21500
C1923       C  0.88477030  0.08083187  0.37408982    -0.21500
C1924       C  0.81208062  0.17055473  0.33025929    -0.22500
C1925       C  0.80963621  0.14587872  0.33212274    -0.22500
C1926       C  0.92108575  0.16594063  0.43015591    -0.22500
C1927       C  0.91981661  0.14106564  0.43067274    -0.22500
C1928       C  0.84515983  0.19952254  0.33992493    -0.17900
C1929       C  0.90890562  0.19717195  0.40024233    -0.17900
C1930       C  0.90299473  0.10984167  0.40292818    -0.17900
C1931       C  0.83697259  0.11301314  0.34531596    -0.17900
H1932       H  0.87882206  0.23852488  0.33513997     0.15000
H1933       H  0.91331265  0.23746302  0.36828635     0.15000
H1934       H  0.85988050  0.06676801  0.34688529     0.15000
H1935       H  0.89554490  0.06506676  0.37801548     0.15000
H1936       H  0.79906449  0.18275301  0.32241638     0.13300
H1937       H  0.79448691  0.13522896  0.32581620     0.13300
H1938       H  0.92968228  0.17734243  0.44354597     0.13300
H1939       H  0.92705395  0.12950394  0.44459171     0.13300
H1940       H  0.86805136  0.17680078  0.37886907     0.26600
H1941       H  0.86587130  0.13553148  0.38023806     0.26600
O1942       O  0.01103140  0.27263275  0.80330193    -0.78100
C1943       C  0.94589729  0.22419445  0.79124629     0.83000
O1944       O  0.03299250  0.21005997  0.75171591    -0.79200
O1945       O  0.95447557  0.22470676  0.71603050    -0.80700
O1946       O  0.96922827  0.30596089  0.73125023    -0.80500
O1947       O  0.00857124  0.30491305  0.77997859    -0.79100
Zn1948     Zn  0.99493903  0.24621936  0.78492963     1.55700
O1949       O  0.93987839  0.27882196  0.73068434    -0.80500
Cd1950     Cd  0.99671257  0.28882528  0.74882588     1.59700
Cd1951     Cd  0.01272686  0.23418081  0.73018658     1.59600
O1952       O  0.02444052  0.29397722  0.72635810    -0.80500
O1953       O  0.99084988  0.25382725  0.75171675    -1.91000
Cd1954     Cd  0.95672838  0.24858037  0.74357366     1.59900
O1955       O  0.03510941  0.25822937  0.71112828    -0.80500
O1956       O  0.93914381  0.23073359  0.77042528    -0.79100
C1957       C  0.03161007  0.20733612  0.77452493     0.83400
C1958       C  0.01594744  0.29458166  0.79904366     0.83100
O1959       O  0.96586496  0.23143682  0.80004978    -0.78100
C1960       C  0.94837190  0.29916258  0.72447454     0.83900
O1961       O  0.01812884  0.22031815  0.78736585    -0.78200
C1962       C  0.03711630  0.28125633  0.71235382     0.84000
C1963       C  0.96881859  0.21211565  0.70360025     0.84300
O1964       O  0.99166828  0.21342209  0.70605944    -0.80600
C1965       C  0.02695300  0.19978429  0.00651741     0.80600
N1966       N  0.00963687  0.18768439  0.01876348    -0.77700
C1967       C  0.00034649  0.19722075  0.03925121     0.83100
N1968       N  0.00865767  0.21892811  0.04745512    -0.77600
C1969       C  0.02586595  0.23133217  0.03545025     0.83200
N1970       N  0.03494824  0.22142026  0.01503096    -0.79300
N1971       N  0.11218326  0.31623914  0.10829306    -0.36200
N1972       N  0.08567041  0.35477870  0.08412398    -0.56800
N1973       N  0.11729179  0.39024154  0.10748999    -0.36200
N1974       N  0.14166957  0.35193438  0.13386996    -0.56800
C1975       C  0.09291097  0.30399689  0.09944838     0.27400
C1976       C  0.12186060  0.30267796  0.12612953     0.27400
C1977       C  0.10178470  0.40531312  0.09632612     0.27400
C1978       C  0.13089380  0.40379350  0.12267056     0.27400
C1979       C  0.07518363  0.33566811  0.07301975     0.36000
C1980       C  0.07759407  0.37481600  0.07286340     0.36000
C1981       C  0.15266105  0.33169837  0.14170457     0.36000
C1982       C  0.15538095  0.37078050  0.14123152     0.36000
C1983       C  0.09045011  0.28234732  0.11165928    -0.21500
C1984       C  0.10860592  0.28158289  0.12857781    -0.21500
C1985       C  0.10598211  0.42880869  0.10415311    -0.21500
C1986       C  0.12428112  0.42784833  0.12070055    -0.21500
C1987       C  0.06004254  0.34361017  0.05480142    -0.22500
C1988       C  0.06148875  0.36842364  0.05477888    -0.22500
C1989       C  0.17348044  0.33771010  0.15425793    -0.22500
C1990       C  0.17513337  0.36249722  0.15406307    -0.22500
C1991       C  0.07809736  0.31126239  0.07994656    -0.17900
C1992       C  0.14312677  0.30807783  0.13932686    -0.17900
C1993       C  0.14941821  0.39539080  0.13805560    -0.17900
C1994       C  0.08423008  0.39884831  0.07885254    -0.17900
H1995       H  0.07692228  0.26853527  0.10873120     0.15000
H1996       H  0.11183162  0.26702067  0.14111944     0.15000
H1997       H  0.09680791  0.44508882  0.09859773     0.15000
H1998       H  0.13182282  0.44322867  0.13020073     0.15000
H1999       H  0.04888509  0.33269732  0.04297527     0.13300
H2000       H  0.05182117  0.38038854  0.04280497     0.13300
H2001       H  0.18589738  0.32555389  0.16308125     0.13300
H2002       H  0.18908959  0.37320746  0.16264294     0.13300
H2003       H  0.11924185  0.33213197  0.10145410     0.26600
H2004       H  0.11886872  0.37194290  0.10446291     0.26600
C2005       C  0.03093053  0.03891625  0.22602288     0.80600
N2006       N  0.03826248  0.01783640  0.21577739    -0.77700
C2007       C  0.02543501  0.00778525  0.19732757     0.83100
N2008       N  0.00522668  0.01906183  0.18927127    -0.77600
C2009       C  0.99750215  0.03999984  0.19935280     0.83200
N2010       N  0.01068188  0.04980794  0.21756986    -0.79300
C2011       C  0.18896604  0.22993314  0.19246650     0.80600
N2012       N  0.21031757  0.22146902  0.18413205    -0.77700
C2013       C  0.22138957  0.20227461  0.19459839     0.83100
N2014       N  0.21051298  0.19107164  0.21348540    -0.77600
C2015       C  0.18895830  0.19906741  0.22196492     0.83200
N2016       N  0.17842096  0.21848951  0.21127456    -0.79300
N2017       N  0.10967519  0.12080447  0.31002822    -0.36200
N2018       N  0.08632872  0.09349269  0.34807969    -0.56800
N2019       N  0.11467638  0.12026660  0.38360581    -0.36200
N2020       N  0.13563127  0.14984475  0.34562536    -0.56800
C2021       C  0.09179475  0.10969751  0.29757995     0.27400
C2022       C  0.11800813  0.13898624  0.29613997     0.27400
C2023       C  0.09894578  0.10882374  0.39809584     0.27400
C2024       C  0.12520029  0.13788498  0.39686713     0.27400
C2025       C  0.07775636  0.08092474  0.32899889     0.36000
C2026       C  0.07984972  0.08116647  0.36792513     0.36000
C2027       C  0.14621898  0.15835177  0.32549289     0.36000
C2028       C  0.14871380  0.15817487  0.36452893     0.36000
C2029       C  0.08878047  0.12096219  0.27550381    -0.21500
C2030       C  0.10535986  0.13937115  0.27457267    -0.21500
C2031       C  0.09989210  0.11895951  0.42095774    -0.21500
C2032       C  0.11645757  0.13721246  0.42020364    -0.21500
C2033       C  0.06561396  0.06049732  0.33676137    -0.22500
C2034       C  0.06671524  0.06079939  0.36148548    -0.22500
C2035       C  0.16596072  0.17246717  0.33166002    -0.22500
C2036       C  0.16743435  0.17249349  0.35640555    -0.22500
C2037       C  0.07890553  0.08888713  0.30488218    -0.17900
C2038       C  0.13758514  0.15446175  0.30172660    -0.17900
C2039       C  0.14329115  0.15392611  0.38902488    -0.17900
C2040       C  0.08428661  0.08892285  0.39177699    -0.17900
H2041       H  0.07602977  0.11630392  0.26142480     0.15000
H2042       H  0.10786126  0.15164294  0.25967215     0.15000
H2043       H  0.08981863  0.11369403  0.43670440     0.15000
H2044       H  0.12151136  0.14858828  0.43528926     0.15000
H2045       H  0.05635043  0.04715644  0.32581898     0.13300
H2046       H  0.05860756  0.04767570  0.37336332     0.13300
H2047       H  0.17789821  0.18197272  0.31962103     0.13300
H2048       H  0.18074928  0.18195770  0.36718846     0.13300
H2049       H  0.11690546  0.11527097  0.32641232     0.26600
H2050       H  0.11883933  0.11560965  0.36596616     0.26600
C2051       C  0.21168373  0.04254037  0.05017603     0.80600
N2052       N  0.20433503  0.05008139  0.02805744    -0.77700
C2053       C  0.18367732  0.04163106  0.01773208     0.83100
N2054       N  0.16996345  0.02550096  0.03006777    -0.77600
C2055       C  0.17678196  0.01787734  0.05239848     0.83200
N2056       N  0.19763178  0.02654883  0.06220640    -0.79300
N2057       N  0.30682297  0.12064521  0.12011712    -0.36200
N2058       N  0.34529674  0.14658405  0.14471772    -0.56800
N2059       N  0.38017159  0.11774019  0.11786842    -0.36200
N2060       N  0.34165510  0.08955170  0.09546996    -0.56800
C2061       C  0.29445089  0.13265782  0.13732917     0.27400
C2062       C  0.29254393  0.10252605  0.11190843     0.27400
C2063       C  0.39497952  0.12919580  0.13361307     0.27400
C2064       C  0.39306133  0.10000750  0.10729344     0.27400
C2065       C  0.32664501  0.16099801  0.15068448     0.36000
C2066       C  0.36562893  0.15909230  0.14979360     0.36000
C2067       C  0.32129989  0.08303127  0.08361622     0.36000
C2068       C  0.36038466  0.08182261  0.08203585     0.36000
C2069       C  0.27204265  0.12201719  0.14011472    -0.21500
C2070       C  0.27082433  0.10302677  0.12407826    -0.21500
C2071       C  0.41758338  0.11867380  0.13293733    -0.21500
C2072       C  0.41641789  0.10039214  0.11626792    -0.21500
C2073       C  0.33515757  0.18275038  0.15979704    -0.22500
C2074       C  0.35988515  0.18153131  0.15926073    -0.22500
C2075       C  0.32710615  0.07067895  0.06270924    -0.22500
C2076       C  0.35188530  0.06996681  0.06167809    -0.22500
C2077       C  0.30212904  0.15412191  0.14912888    -0.17900
C2078       C  0.29764157  0.08725372  0.09204408    -0.17900
C2079       C  0.38497621  0.08468145  0.08844898    -0.17900
C2080       C  0.38923896  0.14989896  0.14740389    -0.17900
H2081       H  0.25783936  0.12767420  0.15209821     0.15000
H2082       H  0.25543933  0.09130844  0.12127305     0.15000
H2083       H  0.43348024  0.12391084  0.14303679     0.15000
H2084       H  0.43125978  0.08892094  0.11111277     0.15000
H2085       H  0.32466876  0.19782602  0.16630627     0.13300
H2086       H  0.37223909  0.19544994  0.16533226     0.13300
H2087       H  0.31477824  0.06306461  0.04955771     0.13300
H2088       H  0.36243733  0.06168550  0.04759533     0.13300
H2089       H  0.32319445  0.12574364  0.11293841     0.26600
H2090       H  0.36283133  0.12270185  0.11348482     0.26600
N2091       N  0.11305407  0.12138739  0.92618885    -0.36200
N2092       N  0.14198109  0.09752045  0.89015600    -0.56800
N2093       N  0.11728001  0.12562493  0.85277771    -0.36200
N2094       N  0.08632135  0.14708063  0.88854843    -0.56800
C2095       C  0.12316527  0.10363895  0.93954280     0.27400
C2096       C  0.09422189  0.13017955  0.93874499     0.27400
C2097       C  0.12912261  0.10925531  0.83930290     0.27400
C2098       C  0.09992003  0.13518279  0.83861301     0.27400
C2099       C  0.15376389  0.08978943  0.91008989     0.36000
C2100       C  0.15610095  0.09235833  0.87108855     0.36000
C2101       C  0.07747683  0.15844944  0.90809079     0.36000
C2102       C  0.07935492  0.16018297  0.86925625     0.36000
C2103       C  0.11054043  0.10114771  0.96086861    -0.21500
C2104       C  0.09230597  0.11791851  0.96037419    -0.21500
C2105       C  0.11927070  0.10854424  0.81627331    -0.21500
C2106       C  0.10082712  0.12491404  0.81585912    -0.21500
C2107       C  0.17543090  0.07940218  0.90362596    -0.22500
C2108       C  0.17689109  0.08098473  0.87890800    -0.22500
C2109       C  0.06450540  0.17865937  0.90112189    -0.22500
C2110       C  0.06557858  0.17965250  0.87647525    -0.22500
C2111       C  0.14451740  0.09093788  0.93382364    -0.17900
C2112       C  0.07993926  0.15021577  0.93203325    -0.17900
C2113       C  0.08437347  0.15410577  0.84513916    -0.17900
C2114       C  0.14960035  0.09614946  0.84666464    -0.17900
H2115       H  0.11439522  0.08888928  0.97551337     0.15000
H2116       H  0.07940321  0.12108788  0.97453882     0.15000
H2117       H  0.12500570  0.09766961  0.80115008     0.15000
H2118       H  0.08961396  0.12905929  0.80043564     0.15000
H2119       H  0.18868173  0.07136195  0.91545327     0.13300
H2120       H  0.19147137  0.07434377  0.86791889     0.13300
H2121       H  0.05510340  0.19131610  0.91255497     0.13300
H2122       H  0.05721088  0.19314932  0.86517037     0.13300
H2123       H  0.11964774  0.12842610  0.91028137     0.26600
H2124       H  0.12189238  0.13107994  0.87006740     0.26600
N2125       N  0.09362586  0.94009322  0.11942184    -0.36200
N2126       N  0.07001931  0.88265159  0.14016752    -0.56800
N2127       N  0.10738535  0.85160134  0.12053707    -0.36200
N2128       N  0.12991677  0.89176756  0.09531645    -0.56800
C2129       C  0.07190268  0.92910746  0.12059840     0.27400
C2130       C  0.10270436  0.93408915  0.09771474     0.27400
C2131       C  0.09277385  0.83490998  0.13077249     0.27400
C2132       C  0.12286486  0.83948774  0.10612444     0.27400
C2133       C  0.05770018  0.90106904  0.15032161     0.36000
C2134       C  0.06533258  0.86268563  0.15311736     0.36000
C2135       C  0.13846641  0.91294417  0.08689448     0.36000
C2136       C  0.14473861  0.87441026  0.08743697     0.36000
C2137       C  0.06683262  0.91692164  0.09938245    -0.21500
C2138       C  0.08628117  0.92024372  0.08478623    -0.21500
C2139       C  0.09917572  0.81204507  0.12292553    -0.21500
C2140       C  0.11805720  0.81490119  0.10745283    -0.21500
C2141       C  0.04471847  0.89270673  0.16980216    -0.22500
C2142       C  0.04957395  0.86832507  0.17158305    -0.22500
C2143       C  0.15883032  0.90915840  0.07325487    -0.22500
C2144       C  0.16275920  0.88457917  0.07346648    -0.22500
C2145       C  0.05942517  0.92519268  0.14202833    -0.29100
C2146       C  0.12724120  0.93515571  0.09199630    -0.17900
C2147       C  0.14172103  0.84954322  0.09215586    -0.17900
C2148       C  0.07436778  0.83937704  0.14776557    -0.17900
H2149       H  0.05148269  0.90539959  0.09566328     0.15000
H2150       H  0.08912267  0.91164331  0.06751050     0.15000
H2151       H  0.09109365  0.79497252  0.12785868     0.15000
H2152       H  0.12725560  0.80036834  0.09828779     0.15000
H2153       H  0.03291246  0.90291860  0.18139008     0.13300
H2154       H  0.04227596  0.85612819  0.18487124     0.13300
H2155       H  0.16930650  0.92248587  0.06369582     0.13300
H2156       H  0.17714127  0.87525544  0.06429478     0.13300
H2157       H  0.10291554  0.94835186  0.13365544     0.26600
H2158       H  0.10737598  0.87003824  0.12395889     0.26600
N2159       N  0.91317870  0.12194359  0.12324276    -0.36200
N2160       N  0.87864759  0.15341026  0.09862424    -0.56800
N2161       N  0.83990175  0.13061445  0.12512360    -0.36200
N2162       N  0.87464635  0.10132324  0.15193980    -0.56800
C2163       C  0.92812214  0.13802833  0.11268561     0.27400
C2164       C  0.92595419  0.11051400  0.14059234     0.27400
C2165       C  0.82737650  0.14817204  0.11386481     0.27400
C2166       C  0.82522814  0.12072620  0.14164577     0.27400
C2167       C  0.89840028  0.15755979  0.08517700     0.36000
C2168       C  0.85964436  0.16222588  0.08616949     0.36000
C2169       C  0.89287773  0.08730273  0.15992634     0.36000
C2170       C  0.85409322  0.09148504  0.16035283     0.36000
C2171       C  0.95068783  0.13666358  0.12340714    -0.21500
C2172       C  0.94936029  0.11921230  0.14086209    -0.21500
C2173       C  0.80434583  0.14932298  0.12325015    -0.21500
C2174       C  0.80301179  0.13207592  0.14083083    -0.21500
C2175       C  0.89193578  0.16933348  0.06413462    -0.22500
C2176       C  0.86741613  0.17244178  0.06484700    -0.22500
C2177       C  0.88393255  0.06874284  0.17395982    -0.22500
C2178       C  0.85936185  0.07141396  0.17427456    -0.22500
C2179       C  0.92235552  0.15297782  0.09279141    -0.17900
C2180       C  0.91753870  0.09155105  0.15537636    -0.17900
C2181       C  0.83066062  0.10066575  0.15629276    -0.17900
C2182       C  0.83549600  0.16195273  0.09418345    -0.17900
H2183       H  0.96658912  0.14702300  0.11901410     0.15000
H2184       H  0.96401530  0.11353193  0.15241337     0.15000
H2185       H  0.78980234  0.16103880  0.11770575     0.15000
H2186       H  0.78723902  0.12802240  0.15140911     0.15000
H2187       H  0.90369892  0.17539628  0.04992345     0.13300
H2188       H  0.85656931  0.18123852  0.05124241     0.13300
H2189       H  0.89404285  0.05478493  0.18306246     0.13300
H2190       H  0.84680795  0.05987773  0.18366723     0.13300
H2191       H  0.89574045  0.11794087  0.11788874     0.26600
H2192       H  0.85688475  0.12462090  0.12077449     0.26600
C2193       C  0.24148776  0.07613044  0.05363782    -0.05400
C2194       C  0.23426169  0.05293695  0.06120180     0.00600
C2195       C  0.24897928  0.04061331  0.07832197    -0.08000
C2196       C  0.27000703  0.05208147  0.08714276    -0.05400
C2197       C  0.27677033  0.07526008  0.07971676     0.00500
C2198       C  0.26237574  0.08755616  0.06266326    -0.07900
C2199       C  0.26931453  0.11252862  0.05372206     0.62500
H2200       H  0.23043851  0.08552514  0.04061326     0.13100
H2201       H  0.28112690  0.04331259  0.10056002     0.13200
C2202       C  0.24288966  0.01554165  0.08746899     0.62700
F2203       F  0.25216652  0.12191357  0.03823412    -0.22500
F2204       F  0.29088057  0.11116797  0.04155129    -0.19800
F2205       F  0.27181193  0.12843506  0.07280386    -0.19500
F2206       F  0.23910194  0.99998460  0.06826554    -0.19500
F2207       F  0.22253957  0.01663931  0.10159207    -0.19900
F2208       F  0.26121883  0.00601737  0.10144716    -0.22500
C2209       C  0.17496918  0.98333866  0.08094748    -0.05400
C2210       C  0.16250445  0.99924408  0.06563420     0.00600
C2211       C  0.13716094  0.99642823  0.06333899    -0.08000
C2212       C  0.12627379  0.97552328  0.07267992    -0.05400
C2213       C  0.13913870  0.95875970  0.08658360     0.00500
C2214       C  0.16345257  0.96408095  0.09266450    -0.07900
C2215       C  0.17803012  0.95058935  0.11152094     0.62500
H2216       H  0.19406253  0.98581052  0.08387537     0.13100
H2217       H  0.10746639  0.97207977  0.06870915     0.13200
C2218       C  0.12088411  0.01520760  0.05201518     0.62700
F2219       F  0.18765878  0.96702902  0.12777163    -0.22500
F2220       F  0.19673955  0.93846314  0.10055543    -0.19800
F2221       F  0.16445073  0.93429588  0.12447434    -0.19500
F2222       F  0.11795679  0.01035391  0.02782915    -0.19500
F2223       F  0.13006116  0.03825070  0.05512046    -0.19900
F2224       F  0.09840977  0.01474986  0.06262817    -0.22500
C2225       C  0.17891089  0.07762030  0.99194959    -0.05400
C2226       C  0.17499085  0.05270037  0.99474670     0.00600
C2227       C  0.16343504  0.03971114  0.97575757    -0.08000
C2228       C  0.15421139  0.05270499  0.95584610    -0.05400
C2229       C  0.15712617  0.07784468  0.95385545     0.00500
C2230       C  0.17056846  0.09035225  0.97172251    -0.07900
C2231       C  0.17618287  0.11709291  0.96949199     0.62500
H2232       H  0.18819839  0.08734831  0.00618210     0.13100
H2233       H  0.14437732  0.04336996  0.94171377     0.13200
C2234       C  0.16207055  0.01230121  0.97561725     0.62700
F2235       F  0.19173069  0.12500578  0.98745033    -0.22500
F2236       F  0.15530145  0.13036485  0.97114178    -0.19800
F2237       F  0.18691755  0.12153385  0.94756425    -0.19500
F2238       F  0.14723738  0.00420780  0.99362922    -0.19500
F2239       F  0.18481462  0.00282906  0.97900753    -0.19900
F2240       F  0.15306785  0.00343367  0.95402908    -0.22500
C2241       C  0.16395004  0.15199713  0.26608585    -0.05400
C2242       C  0.14997541  0.16655118  0.28119843     0.00600
C2243       C  0.14812974  0.19154238  0.27630143    -0.08000
C2244       C  0.16242814  0.20142823  0.25793309    -0.05400
C2245       C  0.17650568  0.18694938  0.24257750     0.00500
C2246       C  0.17657385  0.16151653  0.24632122    -0.07900
C2247       C  0.18898341  0.14412708  0.22929317     0.62500
H2248       H  0.16464593  0.13282622  0.26984119     0.13100
H2249       H  0.16197598  0.22075361  0.25513210     0.13200
C2250       C  0.13092624  0.20829907  0.28931519     0.62700
F2251       F  0.18294533  0.12033139  0.23401633    -0.22500
F2252       F  0.21358056  0.14635812  0.23174670    -0.19800
F2253       F  0.18228170  0.14894435  0.20578704    -0.19500
F2254       F  0.14371606  0.22277749  0.30517981    -0.19500
F2255       F  0.11337612  0.19599821  0.30188175    -0.19900
F2256       F  0.11930877  0.22287288  0.27274647    -0.22500
C2257       C  0.24567894  0.19202721  0.15854136    -0.05400
C2258       C  0.24400356  0.19251960  0.18382488     0.00600
C2259       C  0.26353859  0.18326223  0.19758924    -0.08000
C2260       C  0.28229674  0.17111308  0.18562276    -0.05400
C2261       C  0.28335413  0.16980934  0.16041766     0.00500
C2262       C  0.26544510  0.18170099  0.14661463    -0.07900
C2263       C  0.26611995  0.18347381  0.11933829     0.62500
H2264       H  0.23122890  0.19965703  0.14784236     0.13100
H2265       H  0.29633092  0.16243498  0.19606356     0.13200
C2266       C  0.26556403  0.18605050  0.22469338     0.62700
F2267       F  0.26003073  0.20663451  0.11232487    -0.22500
F2268       F  0.24968194  0.16742068  0.10948191    -0.19800
F2269       F  0.28861373  0.17862644  0.11004171    -0.19500
F2270       F  0.25694458  0.16546509  0.23564139    -0.19500
F2271       F  0.25307156  0.20593096  0.23299005    -0.19900
F2272       F  0.28939446  0.18920187  0.23141545    -0.22500
C2273       C  0.07984975  0.06328415  0.26850320    -0.05400
C2274       C  0.06582483  0.07506483  0.28582168     0.00600
C2275       C  0.04043948  0.07460206  0.28361332    -0.08000
C2276       C  0.03008397  0.06106856  0.26477866    -0.05400
C2277       C  0.04403210  0.04998393  0.24680778     0.00500
C2278       C  0.06951405  0.05161167  0.24840430    -0.07900
C2279       C  0.08591810  0.04278773  0.22847771     0.62500
H2280       H  0.09922897  0.06421315  0.27044616     0.13100
H2281       H  0.01066737  0.06000294  0.26359068     0.13200
C2282       C  0.02344492  0.08842978  0.29995872     0.62700
F2283       F  0.10955519  0.04988742  0.23225690    -0.22500
F2284       F  0.07848335  0.05216486  0.20664657    -0.19800
F2285       F  0.08555233  0.01794445  0.22732664    -0.19500
F2286       F  0.03496990  0.10520954  0.31447030    -0.19500
F2287       F  0.01128379  0.07227544  0.31441935    -0.19900
F2288       F  0.00684914  0.10081819  0.28608228    -0.22500
C2289       C  0.94217435  0.08101138  0.19133202    -0.05400
C2290       C  0.93598878  0.07609726  0.16736778     0.00600
C2291       C  0.94847803  0.05797215  0.15462707    -0.08000
C2292       C  0.96814936  0.04654907  0.16583808    -0.05400
C2293       C  0.97549850  0.05233140  0.18954255     0.00500
C2294       C  0.96154493  0.06931136  0.20286292    -0.07900
C2295       C  0.96667452  0.07534215  0.22907970     0.62500
H2296       H  0.93205155  0.09477587  0.20071846     0.13100
H2297       H  0.97834570  0.03340314  0.15571033     0.13200
C2298       C  0.94104878  0.05091659  0.12918970     0.62700
F2299       F  0.94833983  0.08870688  0.23927035    -0.22500
F2300       F  0.98757434  0.08885081  0.23084888    -0.19800
F2301       F  0.96887828  0.05430626  0.24225895    -0.19500
F2302       F  0.94619990  0.06953033  0.11351730    -0.19500
F2303       F  0.91662026  0.04613106  0.12837489    -0.19900
F2304       F  0.95294283  0.03044418  0.12135975    -0.22500
C2305       C  0.05505254  0.94754463  0.18099738    -0.05400
C2306       C  0.05024105  0.94628610  0.15614256     0.00600
C2307       C  0.03593322  0.96465440  0.14547926    -0.08000
C2308       C  0.02943397  0.98472333  0.15947500    -0.05400
C2309       C  0.03414470  0.98596121  0.18429589     0.00500
C2310       C  0.04571529  0.96614068  0.19556774    -0.07900
C2311       C  0.04619421  0.96312444  0.22270928     0.62500
H2312       H  0.06567254  0.93339033  0.18918083     0.13100
H2313       H  0.02011762  0.99959549  0.15095599     0.13200
C2314       C  0.02632600  0.96297828  0.11984804     0.62700
F2315       F  0.05186025  0.93966591  0.22914615    -0.22500
F2316       F  0.02379355  0.96828392  0.23209104    -0.19800
F2317       F  0.06309895  0.97826940  0.23295425    -0.19500
F2318       F  0.01784952  0.93991750  0.11514435    -0.19500
F2319       F  0.04426269  0.96878426  0.10375722    -0.19900
F2320       F  0.00732981  0.97871584  0.11616510    -0.22500
C2321       C  0.15129707  0.28622064  0.17753137    -0.05400
C2322       C  0.15513115  0.28806592  0.15271849     0.00600
C2323       C  0.17021342  0.27121353  0.14110771    -0.08000
C2324       C  0.18071978  0.25265207  0.15482074    -0.05400
C2325       C  0.17675293  0.25038591  0.17974075     0.00500
C2326       C  0.16191561  0.26777663  0.19140842    -0.07900
C2327       C  0.15742918  0.26747441  0.21832951     0.62500
H2328       H  0.13968694  0.29943624  0.18591162     0.13100
H2329       H  0.19201908  0.23949568  0.14596208     0.13200
C2330       C  0.17540043  0.27308115  0.11436817     0.62700
F2331       F  0.14608557  0.28830406  0.22610354    -0.22500
F2332       F  0.17901926  0.26574271  0.23069452    -0.19800
F2333       F  0.14277888  0.24813627  0.22396907    -0.19500
F2334       F  0.19147089  0.25562263  0.10681117    -0.19500
F2335       F  0.18519875  0.29548689  0.10938546    -0.19900
F2336       F  0.15438311  0.27016136  0.10126719    -0.22500
C2337       C  0.06024775  0.26000008  0.03748899    -0.05400
C2338       C  0.03712763  0.25382468  0.04577832     0.00600
C2339       C  0.02653273  0.26858623  0.06398170    -0.08000
C2340       C  0.04034785  0.28744075  0.07432434    -0.05400
C2341       C  0.06393236  0.29223458  0.06698176     0.00500
C2342       C  0.07385963  0.27880917  0.04781218    -0.07900
C2343       C  0.09919130  0.28359339  0.03892795     0.62500
H2344       H  0.06831895  0.24919609  0.02345675     0.13100
H2345       H  0.03308309  0.29831486  0.08878359     0.13200
C2346       C  0.00091050  0.26498982  0.07265344     0.62700
F2347       F  0.11555761  0.27701915  0.05652206    -0.22500
F2348       F  0.10209860  0.30782039  0.03373588    -0.19800
F2349       F  0.10422052  0.27058813  0.01822008    -0.19500
F2350       F  0.99952563  0.24444050  0.08663584    -0.19500
F2351       F  0.98540656  0.26299533  0.05317746    -0.19900
F2352       F  0.99320730  0.28427780  0.08652965    -0.22500
C2353       C  0.06464631  0.19091591  0.98499984    -0.05400
C2354       C  0.03952519  0.18819403  0.98607459     0.00600
C2355       C  0.02753666  0.17431267  0.96812906    -0.08000
C2356       C  0.04142947  0.16130198  0.95149918    -0.05400
C2357       C  0.06656663  0.16330785  0.95112887     0.00500
C2358       C  0.07836750  0.17917602  0.96738182    -0.07900
C2359       C  0.10522389  0.18405304  0.96581516     0.62500
H2360       H  0.07360572  0.20208458  0.99837228     0.13100
H2361       H  0.03270510  0.14981439  0.93822239     0.13200
C2362       C  0.00036287  0.17412147  0.96542362     0.62700
F2363       F  0.11245907  0.20229520  0.98137887    -0.22500
F2364       F  0.11109445  0.19100703  0.94268955    -0.19800
F2365       F  0.11788606  0.16348813  0.97168573    -0.19500
F2366       F  0.99113868  0.19693776  0.96952577    -0.19500
F2367       F  0.99043499  0.15808446  0.98151004    -0.19900
F2368       F  0.99348155  0.16719277  0.94240323    -0.22500
C2369       C  0.96336433  0.19950413  0.06314485    -0.05400
C2370       C  0.98084372  0.18476661  0.05255269     0.00600
C2371       C  0.97982948  0.15940847  0.05635730    -0.08000
C2372       C  0.96002408  0.14981648  0.06889846    -0.05400
C2373       C  0.94262461  0.16475117  0.07961621     0.00500
C2374       C  0.94518596  0.19017640  0.07777042    -0.07900
C2375       C  0.93023447  0.20857718  0.09134684     0.62500
H2376       H  0.96438646  0.21889494  0.06072675     0.13100
H2377       H  0.95818213  0.13043612  0.07083776     0.13200
C2378       C  0.99971613  0.14247233  0.04829259     0.62700
F2379       F  0.94551277  0.22428888  0.10345998    -0.22500
F2380       F  0.91516917  0.19848838  0.10822919    -0.19800
F2381       F  0.91659765  0.22164306  0.07510334    -0.19500
F2382       F  0.02203307  0.15212775  0.05395266    -0.19500
F2383       F  0.99813142  0.13870501  0.02378416    -0.19900
F2384       F  0.99808283  0.12022546  0.05950380    -0.22500
C2385       C  0.07009861  0.19616293  0.79286491    -0.05400
C2386       C  0.04618060  0.18970274  0.78784224     0.00600
C2387       C  0.03488416  0.17132575  0.80158145    -0.08000
C2388       C  0.04812521  0.15995987  0.81989368    -0.05400
C2389       C  0.07166032  0.16709716  0.82548263     0.00500
C2390       C  0.08292576  0.18553244  0.81198687    -0.07900
C2391       C  0.10764770  0.19506231  0.81895720     0.62500
H2392       H  0.07792914  0.21106367  0.78301742     0.13100
H2393       H  0.04007495  0.14568689  0.83044585     0.13200
C2394       C  0.00888009  0.16380355  0.79706719     0.62700
F2395       F  0.11523814  0.21322609  0.80369866    -0.22500
F2396       F  0.12440002  0.17670922  0.81811823    -0.19800
F2397       F  0.10690240  0.20436955  0.84207961    -0.19500
F2398       F  0.00639356  0.15555738  0.77367570    -0.19500
F2399       F  0.99354881  0.18304319  0.80058177    -0.19900
F2400       F  0.00169505  0.14554974  0.81243438    -0.22500
C2401       C  0.90834059  0.32020112  0.67272551    -0.05400
C2402       C  0.91748738  0.34341249  0.66923373     0.00600
C2403       C  0.93543255  0.35278604  0.68463203    -0.08000
C2404       C  0.94374961  0.33826423  0.70353718    -0.05400
C2405       C  0.93506338  0.31455116  0.70704163     0.00500
C2406       C  0.91681330  0.30531655  0.69125604    -0.07900
C2407       C  0.90637915  0.27992212  0.69314209     0.62500
H2408       H  0.89422869  0.31397063  0.66066936     0.13100
H2409       H  0.95769481  0.34523125  0.71535748     0.13200
C2410       C  0.94603518  0.37774947  0.68057750     0.62700
F2411       F  0.88893181  0.27543725  0.67577943    -0.22500
F2412       F  0.89573545  0.27694750  0.71537507    -0.19800
F2413       F  0.92432064  0.26297087  0.68999616    -0.19500
F2414       F  0.92825580  0.39506098  0.68223407    -0.19500
F2415       F  0.95615715  0.37875995  0.65792963    -0.19900
F2416       F  0.96375480  0.38332076  0.69731781    -0.22500
C2417       C  0.93747773  0.34272317  0.50709403    -0.05400
C2418       C  0.93895893  0.31742721  0.50734418     0.00600
C2419       C  0.92906115  0.30459747  0.52703598    -0.08000
C2420       C  0.91656427  0.31763561  0.54488531    -0.05400
C2421       C  0.91470404  0.34296011  0.54423928     0.00500
C2422       C  0.92599791  0.35581591  0.52538279    -0.07900
C2423       C  0.92649626  0.38325719  0.52464922     0.62500
H2424       H  0.94516343  0.35230833  0.49207434     0.13100
H2425       H  0.90827250  0.30816598  0.55971826     0.13200
C2426       C  0.93257171  0.27756848  0.52992150     0.62700
F2427       F  0.94085157  0.39181860  0.50625036    -0.22500
F2428       F  0.93549862  0.39227809  0.54613522    -0.19800
F2429       F  0.90364201  0.39208168  0.52088124    -0.19500
F2430       F  0.95660905  0.27186188  0.52720273    -0.19500
F2431       F  0.91914591  0.26519583  0.51291072    -0.19900
F2432       F  0.92548084  0.26970970  0.55243094    -0.22500
C2433       C  0.95466112  0.24005854  0.43034900    -0.05400
C2434       C  0.93931932  0.25706150  0.44111755     0.00600
C2435       C  0.91405088  0.25440762  0.43783408    -0.08000
C2436       C  0.90528051  0.23431358  0.42478244    -0.05400
C2437       C  0.92063799  0.21726757  0.41418413     0.00500
C2438       C  0.94589307  0.22046320  0.41656963    -0.07900
C2439       C  0.96457625  0.20466077  0.40448559     0.62500
H2440       H  0.97394949  0.24229821  0.43240804     0.13100
H2441       H  0.88607411  0.23178825  0.42248151     0.13200
C2442       C  0.89624851  0.27307635  0.44693084     0.62700
F2443       F  0.97909509  0.19433779  0.42191701    -0.22500
F2444       F  0.97869101  0.21889031  0.38977677    -0.19800
F2445       F  0.95485882  0.18641390  0.39047441    -0.19500
F2446       F  0.90310039  0.29588767  0.43950341    -0.19500
F2447       F  0.89527897  0.27249232  0.47173209    -0.19900
F2448       F  0.87321705  0.26881258  0.43825502    -0.22500
C2449       C  0.01836267  0.30533715  0.43196595    -0.05400
C2450       C  0.00305417  0.31968858  0.44616819     0.00600
C2451       C  0.00851349  0.34478744  0.44880912    -0.08000
C2452       C  0.02952882  0.35398652  0.43810295    -0.05400
C2453       C  0.04445174  0.33964059  0.42377851     0.00500
C2454       C  0.03858126  0.31501643  0.42015926    -0.07900
C2455       C  0.05282030  0.29938744  0.40290336     0.62500
H2456       H  0.01402063  0.28639963  0.42964377     0.13100
H2457       H  0.03412924  0.37292320  0.44004464     0.13200
C2458       C  0.99187690  0.36241046  0.46149032     0.62700
F2459       F  0.04402787  0.27598031  0.40188471    -0.22500
F2460       F  0.07661348  0.29841278  0.41009218    -0.19800
F2461       F  0.05150015  0.30900867  0.38000810    -0.19500
F2462       F  0.99240994  0.35835911  0.48601939    -0.19500
F2463       F  0.96867038  0.35973039  0.45275171    -0.19900
F2464       F  0.99859659  0.38620657  0.45771407    -0.22500
C2465       C  0.91294160  0.51312045  0.30754206    -0.05400
C2466       C  0.93770861  0.51092485  0.31260902     0.00600
C2467       C  0.94841248  0.52716132  0.32963075    -0.08000
C2468       C  0.93360839  0.54387329  0.34161517    -0.05400
C2469       C  0.90892609  0.54549878  0.33680082     0.00500
C2470       C  0.89838768  0.53024588  0.31918331    -0.07900
C2471       C  0.87191568  0.53214026  0.31257192     0.62500
H2472       H  0.90478901  0.50096158  0.29454528     0.13100
H2473       H  0.94119862  0.55607281  0.35494130     0.13200
C2474       C  0.97528185  0.52772716  0.33493152     0.62700
F2475       F  0.86587390  0.51726553  0.29336138    -0.22500
F2476       F  0.86647630  0.55562745  0.30620073    -0.19800
F2477       F  0.85798784  0.52547554  0.33195079    -0.19500
F2478       F  0.98798117  0.52884790  0.31362752    -0.19500
F2479       F  0.98187245  0.50738359  0.34767761    -0.19900
F2480       F  0.98181664  0.54766479  0.34863722    -0.22500
C2481       C  0.92883779  0.46814713  0.23075444    -0.05400
C2482       C  0.94274488  0.45252480  0.24518666     0.00600
C2483       C  0.94436584  0.42776046  0.23827000    -0.08000
C2484       C  0.93367206  0.42029922  0.21636582    -0.05400
C2485       C  0.91938226  0.43581029  0.20245300     0.00500
C2486       C  0.91625177  0.45998921  0.21015158    -0.07900
C2487       C  0.89849195  0.47663536  0.19765167     0.62500
H2488       H  0.92709880  0.48682741  0.23625874     0.13100
H2489       H  0.93495963  0.40163310  0.21062939     0.13200
C2490       C  0.95503908  0.40858118  0.25466320     0.62700
F2491       F  0.89699451  0.49886635  0.20902913    -0.22500
F2492       F  0.87582102  0.46628973  0.19774497    -0.19800
F2493       F  0.90540830  0.48054644  0.17416573    -0.19500
F2494       F  0.94522206  0.41050250  0.27740490    -0.19500
F2495       F  0.97963607  0.41114655  0.25613394    -0.19900
F2496       F  0.95033942  0.38545326  0.24626919    -0.22500
C2497       C  0.00334008  0.45089344  0.33649046    -0.05400
C2498       C  0.00409586  0.45209991  0.31118896     0.00600
C2499       C  0.02495413  0.44366765  0.29918906    -0.08000
C2500       C  0.04232848  0.43088214  0.31260361    -0.05400
C2501       C  0.04114932  0.42919527  0.33780731     0.00500
C2502       C  0.02216235  0.44079205  0.35009061    -0.07900
C2503       C  0.02249659  0.44386485  0.37731345     0.62500
H2504       H  0.98789884  0.45824035  0.34572156     0.13100
H2505       H  0.05772293  0.42307123  0.30365616     0.13200
C2506       C  0.03052941  0.45065346  0.27335595     0.62700
F2507       F  0.00452175  0.45924924  0.38503294    -0.22500
F2508       F  0.04431982  0.45364763  0.38452082    -0.19800
F2509       F  0.01923457  0.42192691  0.38855555    -0.19500
F2510       F  0.03003818  0.47553556  0.27133362    -0.19500
F2511       F  0.01411382  0.44080506  0.25748684    -0.19900
F2512       F  0.05309951  0.44285118  0.26644164    -0.22500
C2513       C  0.81929289  0.44710335  0.50955641    -0.05400
C2514       C  0.79458203  0.44208846  0.50677153     0.00600
C2515       C  0.78257422  0.42925660  0.52537519    -0.08000
C2516       C  0.79638723  0.41963843  0.54443909    -0.05400
C2517       C  0.82109388  0.42429220  0.54658292     0.00500
C2518       C  0.83244526  0.43949976  0.52973725    -0.07900
C2519       C  0.85807452  0.44839197  0.53352168     0.62500
H2520       H  0.82845629  0.45720921  0.49573354     0.13100
H2521       H  0.78797621  0.40856676  0.55805683     0.13200
C2522       C  0.75537525  0.42706477  0.52634833     0.62700
F2523       F  0.86475355  0.46505452  0.51625496    -0.22500
F2524       F  0.87391934  0.42931248  0.53247829    -0.19800
F2525       F  0.86004788  0.45946467  0.55580845    -0.19500
F2526       F  0.74707992  0.41176563  0.50851499    -0.19500
F2527       F  0.74512840  0.44961039  0.52350422    -0.19900
F2528       F  0.74774315  0.41790835  0.54817934    -0.22500
C2529       C  0.79080811  0.50664070  0.41795420    -0.05400
C2530       C  0.79317703  0.50372899  0.44304240     0.00600
C2531       C  0.80597256  0.52169646  0.45648648    -0.08000
C2532       C  0.81687971  0.54094979  0.44411244    -0.05400
C2533       C  0.81519243  0.54321919  0.41908069     0.00500
C2534       C  0.80140021  0.52622335  0.40573479    -0.07900
C2535       C  0.79710593  0.52930420  0.37887576     0.62500
H2536       H  0.78076085  0.49322740  0.40781531     0.13100
H2537       H  0.82746515  0.55424470  0.45388175     0.13200
C2538       C  0.80856174  0.52088475  0.48373254     0.62700
F2539       F  0.81856913  0.52883396  0.36654060    -0.22500
F2540       F  0.78589809  0.55118328  0.37481959    -0.19800
F2541       F  0.78261571  0.51116498  0.36948217    -0.19500
F2542       F  0.82471636  0.50305733  0.49006498    -0.19500
F2543       F  0.78650923  0.51642705  0.49426490    -0.19900
F2544       F  0.81711031  0.54251386  0.49302938    -0.22500
C2545       C  0.71270297  0.40303498  0.42392595    -0.05400
C2546       C  0.69433251  0.41763212  0.41452238     0.00600
C2547       C  0.69530490  0.44298924  0.41854109    -0.08000
C2548       C  0.71406681  0.45241799  0.43289780    -0.05400
C2549       C  0.73289539  0.43788445  0.44153199     0.00500
C2550       C  0.73256069  0.41276083  0.43638849    -0.07900
C2551       C  0.75355234  0.39633197  0.44249397     0.62500
H2552       H  0.71171124  0.38375877  0.42063022     0.13100
H2553       H  0.71459960  0.47167445  0.43652662     0.13200
C2554       C  0.67781406  0.46105588  0.40770752     0.62700
F2555       F  0.75119979  0.37386307  0.43167824    -0.22500
F2556       F  0.75485526  0.39283831  0.46700559    -0.19800
F2557       F  0.77482020  0.40648196  0.43456151    -0.19500
F2558       F  0.66334152  0.47025352  0.42568341    -0.19500
F2559       F  0.66338562  0.45126245  0.38983874    -0.19900
F2560       F  0.69054747  0.47992920  0.39756163    -0.22500
C2561       C  0.80965665  0.25666037  0.32612602    -0.05400
C2562       C  0.80852451  0.25623774  0.30089402     0.00600
C2563       C  0.81946931  0.23691698  0.28823887    -0.08000
C2564       C  0.83160972  0.21892184  0.30155043    -0.05400
C2565       C  0.83278380  0.21958720  0.32686441     0.00500
C2566       C  0.82126903  0.23857866  0.33941240    -0.07900
C2567       C  0.82084890  0.23976890  0.36675888     0.62500
H2568       H  0.80161355  0.27168165  0.33551944     0.13100
H2569       H  0.84020887  0.20403882  0.29232359     0.13200
C2570       C  0.81763192  0.23478119  0.26101962     0.62700
F2571       F  0.80505153  0.25719005  0.37498178    -0.22500
F2572       F  0.84345180  0.24547124  0.37553456    -0.19800
F2573       F  0.81362941  0.21780119  0.37606125    -0.19500
F2574       F  0.83082646  0.25289260  0.25029628    -0.19500
F2575       F  0.79385365  0.23661379  0.25380802    -0.19900
F2576       F  0.82636210  0.21288863  0.25279665    -0.22500
C2577       C  0.72486189  0.32715873  0.28829239    -0.05400
C2578       C  0.74074665  0.31320420  0.30233184     0.00600
C2579       C  0.73518789  0.30931270  0.32710018    -0.08000
C2580       C  0.71373773  0.31888465  0.33635375    -0.05400
C2581       C  0.69846773  0.33327401  0.32246524     0.00500
C2582       C  0.70406309  0.33776399  0.29808545    -0.07900
C2583       C  0.68881786  0.35464693  0.28289348     0.62500
H2584       H  0.72918347  0.33023470  0.26958028     0.13100
H2585       H  0.70907351  0.31611365  0.35504385     0.13200
C2586       C  0.75227548  0.29680276  0.34448530     0.62700
F2587       F  0.69799065  0.35736421  0.25995580    -0.22500
F2588       F  0.68809531  0.37719057  0.29365324    -0.19800
F2589       F  0.66567885  0.34574414  0.28069746    -0.19500
F2590       F  0.77470741  0.30759062  0.34334566    -0.19500
F2591       F  0.75390131  0.27252038  0.33888900    -0.19900
F2592       F  0.74461642  0.29849068  0.36810362    -0.22500
C2593       C  0.84200780  0.33898081  0.22218955    -0.05400
C2594       C  0.82753570  0.35079982  0.20506145     0.00600
C2595       C  0.80219801  0.35090320  0.20843916    -0.08000
C2596       C  0.79232420  0.33674868  0.22699673    -0.05400
C2597       C  0.80682721  0.32437142  0.24367298     0.00500
C2598       C  0.83220404  0.32701311  0.24219807    -0.07900
C2599       C  0.84902231  0.31881807  0.26225845     0.62500
H2600       H  0.86135514  0.33974617  0.22008770     0.13100
H2601       H  0.77293285  0.33581315  0.22875521     0.13200
C2602       C  0.78468337  0.36598700  0.19383202     0.62700
F2603       F  0.87140539  0.32966730  0.26054779    -0.22500
F2604       F  0.85224540  0.29414810  0.26109816    -0.19800
F2605       F  0.83966544  0.32500875  0.28447293    -0.19500
F2606       F  0.76912019  0.35084701  0.18139724    -0.19500
F2607       F  0.79575960  0.38114609  0.17760292    -0.19900
F2608       F  0.77142736  0.38025504  0.20932169    -0.22500
C2609       C  0.06743510  0.31321496  0.70734702    -0.05400
C2610       C  0.05335216  0.29496919  0.69656874     0.00600
C2611       C  0.05079067  0.29423888  0.67125841    -0.08000
C2612       C  0.05992207  0.31360356  0.65774611    -0.05400
C2613       C  0.07276068  0.33258161  0.66875252     0.00500
C2614       C  0.07815929  0.33152134  0.69363651    -0.07900
C2615       C  0.09596797  0.34893526  0.70534060     0.62500
H2616       H  0.06953805  0.31326555  0.72675046     0.13100
H2617       H  0.05732579  0.31404011  0.63841590     0.13200
C2618       C  0.03801768  0.27342612  0.65876895     0.62700
F2619       F  0.10012737  0.34334337  0.72925414    -0.22500
F2620       F  0.08748081  0.37232595  0.70435115    -0.19800
F2621       F  0.11771300  0.34772400  0.69343364    -0.19500
F2622       F  0.01412362  0.27282716  0.66550695    -0.19500
F2623       F  0.04892503  0.25193344  0.66513967    -0.19900
F2624       F  0.03901151  0.27539692  0.63397137    -0.22500
C2625       C  0.98812213  0.56592888  0.66383856    -0.05400
C2626       C  0.99242533  0.57067683  0.68847334     0.00600
C2627       C  0.97833907  0.58881594  0.70012963    -0.08000
C2628       C  0.95995771  0.60024065  0.68701655    -0.05400
C2629       C  0.95587194  0.59519001  0.66274372     0.00500
C2630       C  0.97042850  0.57832866  0.65062255    -0.07900
C2631       C  0.96762717  0.57404361  0.62373436     0.62500
H2632       H  0.99922920  0.55281606  0.65468295     0.13100
H2633       H  0.94852999  0.61354405  0.69551453     0.13200
C2634       C  0.98184996  0.59612683  0.72624803     0.62700
F2635       F  0.97395983  0.59480277  0.61151255    -0.22500
F2636       F  0.94404820  0.56815378  0.61816777    -0.19800
F2637       F  0.98214568  0.55545322  0.61572404    -0.19500
F2638       F  0.00427832  0.60655312  0.72942517    -0.19500
F2639       F  0.97943858  0.57604351  0.74061549    -0.19900
F2640       F  0.96499363  0.61287394  0.73375218    -0.22500
C2641       C  0.06491558  0.45932320  0.69030768    -0.05400
C2642       C  0.06488494  0.45826948  0.66503321     0.00600
C2643       C  0.05224855  0.47622866  0.65202503    -0.08000
C2644       C  0.04343604  0.49655583  0.66447095    -0.05400
C2645       C  0.04486568  0.49852194  0.68971670     0.00500
C2646       C  0.05406546  0.47859447  0.70293279    -0.07900
C2647       C  0.05130411  0.47685252  0.73004650     0.62500
H2648       H  0.07374793  0.44497523  0.70014277     0.13100
H2649       H  0.03541428  0.51112326  0.65424532     0.13200
C2650       C  0.04801040  0.47471458  0.62504818     0.62700
F2651       F  0.05570719  0.45364588  0.73814224    -0.22500
F2652       F  0.02801814  0.48276323  0.73642196    -0.19800
F2653       F  0.06724750  0.49229988  0.74151687    -0.19500
F2654       F  0.04997595  0.45134932  0.61639163    -0.19500
F2655       F  0.06446340  0.48924670  0.61341431    -0.19900
F2656       F  0.02503548  0.48259745  0.61953783    -0.22500
C2657       C  0.08216996  0.56691602  0.74622871    -0.05400
C2658       C  0.05730448  0.56417652  0.74948800     0.00600
C2659       C  0.04686523  0.57317563  0.77094036    -0.08000
C2660       C  0.06113874  0.58689009  0.78687947    -0.05400
C2661       C  0.08618730  0.58901978  0.78419637     0.00500
C2662       C  0.09704104  0.57809774  0.76369540    -0.07900
C2663       C  0.12393746  0.57740186  0.75916415     0.62500
H2664       H  0.09019597  0.55980450  0.72994195     0.13100
H2665       H  0.05274156  0.59489427  0.80255761     0.13200
C2666       C  0.02152710  0.56741783  0.77910261     0.62700
F2667       F  0.13046647  0.55440550  0.75191294    -0.22500
F2668       F  0.13752484  0.58300960  0.77930886    -0.19800
F2669       F  0.12950170  0.59341861  0.74097249    -0.19500
F2670       F  0.00998107  0.55078883  0.76447572    -0.19500
F2671       F  0.00820878  0.58845004  0.78000478    -0.19900
F2672       F  0.02249981  0.55761670  0.80196188    -0.22500
C2673       C  0.26773041  0.60112546  0.57460233    -0.05400
C2674       C  0.28665719  0.58700222  0.58379368     0.00600
C2675       C  0.28406439  0.56142998  0.58344935    -0.08000
C2676       C  0.26379066  0.55118112  0.57194034    -0.05400
C2677       C  0.24467453  0.56530724  0.56327198     0.00500
C2678       C  0.24605598  0.59079156  0.56619335    -0.07900
C2679       C  0.22492037  0.60785125  0.56312937     0.62500
H2680       H  0.26921789  0.62063845  0.57568475     0.13100
H2681       H  0.26258112  0.53168989  0.57033802     0.13200
C2682       C  0.30151709  0.54397005  0.59526572     0.62700
F2683       F  0.22250397  0.62153695  0.58388324    -0.22500
F2684       F  0.20331242  0.59604852  0.55929444    -0.19800
F2685       F  0.22920239  0.62329669  0.54415128    -0.19500
F2686       F  0.31773379  0.55505234  0.61067673    -0.19500
F2687       F  0.31404323  0.53177071  0.57759595    -0.19900
F2688       F  0.28878498  0.52733905  0.60871547    -0.22500
C2689       C  0.16115203  0.49304996  0.55462036    -0.05400
C2690       C  0.18508359  0.49820705  0.56160358     0.00600
C2691       C  0.19630546  0.48300015  0.57907049    -0.08000
C2692       C  0.18272717  0.46417009  0.58941981    -0.05400
C2693       C  0.15884446  0.45965243  0.58264567     0.00500
C2694       C  0.14790997  0.47395331  0.56469432    -0.07900
C2695       C  0.12234984  0.46889506  0.55616653     0.62500
H2696       H  0.15254246  0.50440454  0.54133160     0.13100
H2697       H  0.19060172  0.45269033  0.60307592     0.13200
C2698       C  0.22258219  0.48563410  0.58636513     0.62700
F2699       F  0.11567858  0.48373288  0.53729040    -0.22500
F2700       F  0.10641393  0.47263970  0.57479117    -0.19800
F2701       F  0.12044231  0.44520975  0.54836956    -0.19500
F2702       F  0.22613916  0.50697719  0.59887110    -0.19500
F2703       F  0.23685003  0.48525939  0.56606563    -0.19900
F2704       F  0.23004079  0.46699891  0.60118394    -0.22500
C2705       C  0.26985383  0.68474500  0.70117561    -0.05400
C2706       C  0.26107618  0.70574523  0.68967284     0.00600
C2707       C  0.27360710  0.71429281  0.66900658    -0.08000
C2708       C  0.29202095  0.69988846  0.65913816    -0.05400
C2709       C  0.29949500  0.67837497  0.67000589     0.00500
C2710       C  0.28937520  0.67143556  0.69216354    -0.07900
C2711       C  0.29967960  0.65050314  0.70652172     0.62500
H2712       H  0.26134864  0.67858405  0.71749572     0.13100
H2713       H  0.30065690  0.70516438  0.64253760     0.13200
C2714       C  0.26831788  0.73851404  0.65740862     0.62700
F2715       F  0.32334070  0.65557849  0.71249559    -0.22500
F2716       F  0.29888816  0.62936258  0.69326750    -0.19800
F2717       F  0.28716343  0.64665247  0.72762908    -0.19500
F2718       F  0.26819752  0.75645229  0.67481265    -0.19500
F2719       F  0.24635588  0.73765311  0.64562864    -0.19900
F2720       F  0.28561452  0.74475178  0.64070102    -0.22500
C2721       C  0.19788834  0.68001577  0.75008130    -0.05400
C2722       C  0.19815171  0.70532619  0.75102241     0.00600
C2723       C  0.18833012  0.71732351  0.77126131    -0.08000
C2724       C  0.17636645  0.70336741  0.78872617    -0.05400
C2725       C  0.17586184  0.67795710  0.78747538     0.00500
C2726       C  0.18802306  0.66607096  0.76851364    -0.07900
C2727       C  0.19161921  0.63892715  0.76683597     0.62500
H2728       H  0.20601737  0.67087281  0.73487748     0.13100
H2729       H  0.16773520  0.71212956  0.80382763     0.13200
C2730       C  0.19223526  0.74421146  0.77545406     0.62700
F2731       F  0.17803219  0.62989559  0.74790583    -0.22500
F2732       F  0.18545664  0.62678184  0.78758194    -0.19800
F2733       F  0.21563148  0.63417684  0.76248679    -0.19500
F2734       F  0.18078200  0.75761147  0.75798431    -0.19500
F2735       F  0.21660224  0.74928062  0.77492215    -0.19900
F2736       F  0.18350109  0.75158496  0.79756042    -0.22500
C2737       C  0.20679867  0.78005529  0.67068234    -0.05400
C2738       C  0.19290879  0.76398084  0.68440880     0.00600
C2739       C  0.16735648  0.76635191  0.68396350    -0.08000
C2740       C  0.15708450  0.78518204  0.67040074    -0.05400
C2741       C  0.17112409  0.80092142  0.65663018     0.00500
C2742       C  0.19637235  0.79790310  0.65612600    -0.07900
C2743       C  0.21314170  0.81270194  0.64050470     0.62500
H2744       H  0.22619852  0.77839735  0.67089083     0.13100
H2745       H  0.13779629  0.78788090  0.67041189     0.13200
C2746       C  0.15061846  0.74906475  0.69698658     0.62700
F2747       F  0.22890734  0.79742117  0.62877925    -0.22500
F2748       F  0.22622217  0.82838293  0.65494824    -0.19800
F2749       F  0.20121745  0.82589311  0.62309575    -0.19500
F2750       F  0.15213377  0.75291305  0.72148929    -0.19500
F2751       F  0.15663017  0.72542080  0.69172927    -0.19900
F2752       F  0.12683221  0.75230169  0.69022978    -0.22500
C2753       C  0.18463755  0.58442947  0.46046984    -0.05400
C2754       C  0.16200483  0.57535177  0.45386631     0.00600
C2755       C  0.15281078  0.55492631  0.46598178    -0.08000
C2756       C  0.16500645  0.54657360  0.48666332    -0.05400
C2757       C  0.18710127  0.55668613  0.49450484     0.00500
C2758       C  0.19799047  0.57462809  0.47973893    -0.07900
C2759       C  0.22378671  0.58299616  0.48328100     0.62500
H2760       H  0.19185333  0.59937796  0.45023507     0.13100
H2761       H  0.15707355  0.53203769  0.49690115     0.13200
C2762       C  0.13063393  0.54165837  0.45668795     0.62700
F2763       F  0.23216364  0.59538673  0.46340393    -0.22500
F2764       F  0.23866540  0.56328912  0.48665670    -0.19800
F2765       F  0.22532130  0.59828009  0.50289538    -0.19500
F2766       F  0.13390210  0.53540492  0.43280690    -0.19500
F2767       F  0.11052789  0.55610378  0.45850701    -0.19900
F2768       F  0.12635473  0.52065608  0.46943940    -0.22500
C2769       C  0.08109893  0.69628126  0.48815837    -0.05400
C2770       C  0.05584112  0.69639576  0.48945190     0.00600
C2771       C  0.04231834  0.68462411  0.47101495    -0.08000
C2772       C  0.05462806  0.67114269  0.45351744    -0.05400
C2773       C  0.07982451  0.67060495  0.45259345     0.00500
C2774       C  0.09335245  0.68434150  0.46952928    -0.07900
C2775       C  0.12060645  0.68626148  0.46892863     0.62500
H2776       H  0.09144398  0.70553783  0.50199821     0.13100
H2777       H  0.04456778  0.66085330  0.44020843     0.13200
C2778       C  0.01513318  0.68665518  0.46898940     0.62700
F2779       F  0.12799844  0.70877696  0.47705111    -0.22500
F2780       F  0.12946073  0.68335954  0.44589693    -0.19800
F2781       F  0.13050318  0.66889712  0.48376074    -0.19500
F2782       F  0.00793911  0.71016866  0.47325912    -0.19500
F2783       F  0.00430917  0.67148804  0.48531640    -0.19900
F2784       F  0.00702599  0.68024197  0.44622365    -0.22500
C2785       C  0.97532381  0.71479224  0.56085455    -0.05400
C2786       C  0.99299841  0.69902919  0.55199766     0.00600
C2787       C  0.98988432  0.67376376  0.55524349    -0.08000
C2788       C  0.96831509  0.66528877  0.56538580    -0.05400
C2789       C  0.95075703  0.68099470  0.57454985     0.00500
C2790       C  0.95457461  0.70630489  0.57275779    -0.07900
C2791       C  0.93769638  0.72437184  0.58438538     0.62500
H2792       H  0.97815397  0.73402222  0.55874739     0.13100
H2793       H  0.96553640  0.64603163  0.56749224     0.13200
C2794       C  0.00968932  0.65560823  0.55000616     0.62700
F2795       F  0.94630535  0.74779015  0.58262084    -0.22500
F2796       F  0.93512498  0.71908599  0.60853338    -0.19800
F2797       F  0.91545610  0.72363074  0.57328471    -0.19500
F2798       F  0.03193797  0.66474165  0.55671524    -0.19500
F2799       F  0.00981382  0.65000181  0.52581190    -0.19900
F2800       F  0.00628558  0.63439102  0.56267868    -0.22500
C2801       C  0.07173289  0.77605236  0.53597228    -0.05400
C2802       C  0.05771735  0.76123322  0.55110508     0.00600
C2803       C  0.05683215  0.76696893  0.57614193    -0.08000
C2804       C  0.06890627  0.78778038  0.58459951    -0.05400
C2805       C  0.08261346  0.80245761  0.56941961     0.00500
C2806       C  0.08455330  0.79633506  0.54478805    -0.07900
C2807       C  0.10071369  0.81074484  0.52815020     0.62500
H2808       H  0.07276782  0.77153412  0.51703853     0.13100
H2809       H  0.06833364  0.79253672  0.60351548     0.13200
C2810       C  0.04438069  0.75083358  0.59435935     0.62700
F2811       F  0.10189392  0.80049875  0.50543322    -0.22500
F2812       F  0.12381649  0.81172075  0.53749402    -0.19800
F2813       F  0.09205171  0.83397394  0.52575463    -0.19500
F2814       F  0.05209956  0.72724511  0.59166276    -0.19500
F2815       F  0.01973566  0.75198009  0.59118825    -0.19900
F2816       F  0.04944204  0.75778274  0.61782165    -0.22500
C2817       C  0.93032826  0.15995257  0.68556927    -0.05400
C2818       C  0.92083662  0.16830175  0.66376813     0.00600
C2819       C  0.93092942  0.18886472  0.65255866    -0.08000
C2820       C  0.94875371  0.20206694  0.66509273    -0.05400
C2821       C  0.95736934  0.19432673  0.68757162     0.00500
C2822       C  0.94895542  0.17237461  0.69741162    -0.07900
C2823       C  0.95933717  0.16254593  0.72071254     0.62500
H2824       H  0.92279173  0.14370228  0.69332436     0.13100
H2825       H  0.95526356  0.21905321  0.65800036     0.13200
C2826       C  0.92274493  0.19669180  0.62762477     0.62700
F2827       F  0.94990834  0.14007683  0.72622248    -0.22500
F2828       F  0.95441190  0.17808398  0.73957727    -0.19800
F2829       F  0.98398092  0.16021645  0.71846855    -0.19500
F2830       F  0.89862065  0.20257421  0.62775730    -0.19500
F2831       F  0.92630163  0.17804282  0.61140505    -0.19900
F2832       F  0.93541718  0.21664214  0.61967482    -0.22500
C2833       C  0.67814626  0.27972271  0.65546278    -0.05400
C2834       C  0.66336569  0.29409397  0.66987671     0.00600
C2835       C  0.66229953  0.28936938  0.69490382    -0.08000
C2836       C  0.67628392  0.27034895  0.70456614    -0.05400
C2837       C  0.69121303  0.25572584  0.69014696     0.00500
C2838       C  0.69187832  0.26050964  0.66489648    -0.07900
C2839       C  0.70626273  0.24523754  0.64745209     0.62500
H2840       H  0.67854397  0.28363539  0.63638632     0.13100
H2841       H  0.67572711  0.26687195  0.72370546     0.13200
C2842       C  0.64641784  0.30428263  0.71133083     0.62700
F2843       F  0.70139861  0.25102977  0.62369287    -0.22500
F2844       F  0.70064560  0.22107753  0.65043908    -0.19800
F2845       F  0.73052119  0.24911026  0.65140113    -0.19500
F2846       F  0.64579960  0.29501549  0.73443667    -0.19500
F2847       F  0.62312299  0.30463262  0.70249038    -0.19900
F2848       F  0.65510389  0.32765816  0.71266970    -0.22500
C2849       C  0.71028007  0.17717474  0.76725963    -0.05400
C2850       C  0.69481162  0.19136022  0.75298929     0.00600
C2851       C  0.66972093  0.19052926  0.75786366    -0.08000
C2852       C  0.66148273  0.17613562  0.77707935    -0.05400
C2853       C  0.67677375  0.16066107  0.79012644     0.00500
C2854       C  0.70176430  0.16100020  0.78484453    -0.07900
C2855       C  0.71933495  0.14321160  0.79606082     0.62500
H2856       H  0.72935242  0.17811695  0.76385727     0.13100
H2857       H  0.64251059  0.17589155  0.78133863     0.13200
C2858       C  0.65131212  0.20347430  0.74226417     0.62700
F2859       F  0.74203812  0.14497128  0.78612225    -0.22500
F2860       F  0.71119569  0.11987087  0.79219747    -0.19800
F2861       F  0.72171900  0.14755407  0.82045686    -0.19500
F2862       F  0.65455252  0.19731971  0.71833673    -0.19500
F2863       F  0.65369351  0.22816617  0.74520194    -0.19900
F2864       F  0.62796636  0.19725328  0.74821514    -0.22500
C2865       C  0.76104107  0.19873783  0.66647777    -0.05400
C2866       C  0.75858645  0.19631036  0.69155475     0.00600
C2867       C  0.77618855  0.18258291  0.70426901    -0.08000
C2868       C  0.79327972  0.16936635  0.69108389    -0.05400
C2869       C  0.79495762  0.17126145  0.66603472     0.00500
C2870       C  0.77948347  0.18719440  0.65362966    -0.07900
C2871       C  0.78260275  0.19217244  0.62698325     0.62500
H2872       H  0.74794278  0.20917550  0.65667753     0.13100
H2873       H  0.80584287  0.15768930  0.70040851     0.13200
C2874       C  0.77799413  0.18176722  0.73150365     0.62700
F2875       F  0.77694429  0.17175388  0.61372653    -0.22500
F2876       F  0.80617496  0.19873962  0.62249638    -0.19800
F2877       F  0.76795207  0.21081429  0.61926194    -0.19500
F2878       F  0.76453343  0.16261532  0.73994335    -0.19500
F2879       F  0.77018123  0.20308569  0.74182389    -0.19900
F2880       F  0.80166391  0.17857975  0.73874542    -0.22500
C2881       C  0.47580860  0.16542468  0.54234804    -0.05400
C2882       C  0.48407598  0.18656260  0.55421449     0.00600
C2883       C  0.47188830  0.19410874  0.57554340    -0.08000
C2884       C  0.45339350  0.17933453  0.58471062    -0.05400
C2885       C  0.44580729  0.15824550  0.57293348     0.00500
C2886       C  0.45659722  0.15145583  0.55104085    -0.07900
C2887       C  0.44764426  0.12968600  0.53681532     0.62500
H2888       H  0.48446610  0.15968385  0.52593569     0.13100
H2889       H  0.44433774  0.18421894  0.60122079     0.13200
C2890       C  0.47726962  0.21782608  0.58841440     0.62700
F2891       F  0.46073222  0.12608737  0.51599042    -0.22500
F2892       F  0.42386164  0.13307621  0.53030125    -0.19800
F2893       F  0.44945039  0.10905416  0.55061435    -0.19500
F2894       F  0.47491555  0.23674123  0.57238695    -0.19500
F2895       F  0.50023629  0.21755738  0.59806651    -0.19900
F2896       F  0.46154418  0.22205460  0.60719172    -0.22500
C2897       C  0.54308347  0.16636426  0.48643226    -0.05400
C2898       C  0.54355318  0.19164192  0.48920962     0.00600
C2899       C  0.55316248  0.20596133  0.47045319    -0.08000
C2900       C  0.56562726  0.19445924  0.45168165    -0.05400
C2901       C  0.56679706  0.16921502  0.45003934     0.00500
C2902       C  0.55380729  0.15491926  0.46658451    -0.07900
C2903       C  0.55060220  0.12788906  0.46276708     0.62500
H2904       H  0.53453471  0.15551589  0.50013860     0.13100
H2905       H  0.57463519  0.20514778  0.43813305     0.13200
C2906       C  0.54915677  0.23300702  0.46930763     0.62700
F2907       F  0.57227782  0.11612200  0.46544795    -0.22500
F2908       F  0.54172942  0.12357762  0.43982398    -0.19800
F2909       F  0.53457430  0.11806292  0.47902080    -0.19500
F2910       F  0.56493776  0.24475488  0.48464736    -0.19500
F2911       F  0.52578062  0.23845362  0.47573570    -0.19900
F2912       F  0.55270708  0.24166041  0.44623926    -0.22500
C2913       C  0.53547293  0.26428367  0.57214537    -0.05400
C2914       C  0.54961563  0.24812093  0.55873859     0.00600
C2915       C  0.57507869  0.25076176  0.55962266    -0.08000
C2916       C  0.58508404  0.27056696  0.57226537    -0.05400
C2917       C  0.57082974  0.28696281  0.58516319     0.00500
C2918       C  0.54558207  0.28322522  0.58587836    -0.07900
C2919       C  0.52837158  0.29819978  0.60088828     0.62500
H2920       H  0.51611376  0.26200923  0.57211835     0.13100
H2921       H  0.60436627  0.27342236  0.57229060     0.13200
C2922       C  0.59189137  0.23226783  0.54853195     0.62700
F2923       F  0.51540778  0.28302883  0.61573111    -0.22500
F2924       F  0.51253492  0.31004695  0.58574366    -0.19800
F2925       F  0.53969616  0.31513805  0.61535866    -0.19500
F2926       F  0.59115760  0.23382205  0.52375519    -0.19500
F2927       F  0.58522365  0.20926157  0.55553369    -0.19900
F2928       F  0.61549884  0.23588349  0.55580339    -0.22500
C2929       C  0.65994350  0.06582156  0.49361205    -0.05400
C2930       C  0.68520450  0.06497383  0.49416609     0.00600
C2931       C  0.69812635  0.07400830  0.47413865    -0.08000
C2932       C  0.68532142  0.08584301  0.45557285    -0.05400
C2933       C  0.66002657  0.08704719  0.45534884     0.00500
C2934       C  0.64711775  0.07551547  0.47403802    -0.07900
C2935       C  0.61991113  0.07292857  0.47399016     0.62500
H2936       H  0.65000064  0.05832078  0.50856258     0.13100
H2937       H  0.69499095  0.09396536  0.44078600     0.13200
C2938       C  0.72497162  0.06988674  0.47150048     0.62700
F2939       F  0.61328050  0.05115687  0.48421879    -0.22500
F2940       F  0.61034072  0.07325883  0.45095783    -0.19800
F2941       F  0.61005081  0.09144817  0.48736466    -0.19500
F2942       F  0.73025406  0.04581726  0.47547296    -0.19500
F2943       F  0.73754023  0.08395363  0.48781172    -0.19900
F2944       F  0.73287645  0.07571588  0.44865911    -0.22500
C2945       C  0.65440102  0.96606574  0.55253247    -0.05400
C2946       C  0.65804000  0.96098063  0.57696781     0.00600
C2947       C  0.67591096  0.97398776  0.58986378    -0.08000
C2948       C  0.68754471  0.99360322  0.57860331    -0.05400
C2949       C  0.68315501  0.99965409  0.55433856     0.00500
C2950       C  0.66719682  0.98454051  0.54065806    -0.07900
C2951       C  0.66387138  0.98700849  0.51356054     0.62500
H2952       H  0.64130956  0.95526286  0.54274755     0.13100
H2953       H  0.70037103  0.00428876  0.58881598     0.13200
C2954       C  0.68371817  0.96614445  0.61485133     0.62700
F2955       F  0.65201668  0.96725351  0.50369966    -0.22500
F2956       F  0.68604020  0.98862351  0.50246808    -0.19800
F2957       F  0.65034754  0.00726942  0.50842507    -0.19500
F2958       F  0.69244027  0.94280148  0.61366739    -0.19500
F2959       F  0.66456917  0.96683576  0.63054368    -0.19900
F2960       F  0.70174186  0.98083180  0.62411938    -0.22500
C2961       C  0.76282251  0.04731790  0.57206133    -0.05400
C2962       C  0.74730703  0.06278326  0.55917525     0.00600
C2963       C  0.75272204  0.08794722  0.55896056    -0.08000
C2964       C  0.77493003  0.09593554  0.56837536    -0.05400
C2965       C  0.79052339  0.08044723  0.58077147     0.00500
C2966       C  0.78379516  0.05596786  0.58380274    -0.07900
C2967       C  0.79806311  0.03944089  0.60026510     0.62500
H2968       H  0.75825939  0.02833961  0.57319094     0.13100
H2969       H  0.77966507  0.11491363  0.56741675     0.13200
C2970       C  0.73466538  0.10699429  0.55120947     0.62700
F2971       F  0.78701947  0.01716474  0.60283106    -0.22500
F2972       F  0.80011691  0.04977426  0.62290122    -0.19800
F2973       F  0.82077414  0.03576903  0.59104486    -0.19500
F2974       F  0.71155682  0.10035628  0.55754534    -0.19500
F2975       F  0.73584356  0.11032862  0.52666448    -0.19900
F2976       F  0.73941587  0.12894494  0.56234852    -0.22500
C2977       C  0.46630527  0.04345973  0.68384094    -0.05400
C2978       C  0.48222126  0.05909808  0.69608679     0.00600
C2979       C  0.47733089  0.08435145  0.69565811    -0.08000
C2980       C  0.45744544  0.09275343  0.68206736    -0.05400
C2981       C  0.44260571  0.07705575  0.66863192     0.00500
C2982       C  0.44707837  0.05187804  0.66958385    -0.07900
C2983       C  0.43293460  0.03393613  0.65425412     0.62500
H2984       H  0.46958722  0.02427520  0.68484000     0.13100
H2985       H  0.45367030  0.11190290  0.68114155     0.13200
C2986       C  0.49306232  0.10256694  0.70886848     0.62700
F2987       F  0.44105811  0.01051298  0.65728744    -0.22500
F2988       F  0.43533799  0.03983792  0.63023821    -0.19800
F2989       F  0.40891223  0.03422768  0.66028664    -0.19500
F2990       F  0.51667509  0.10036868  0.70149488    -0.19500
F2991       F  0.49153577  0.09864617  0.73335092    -0.19900
F2992       F  0.48592923  0.12611152  0.70457564    -0.22500
C2993       C  0.57882934  0.05794449  0.78947690    -0.05400
C2994       C  0.57537798  0.08268350  0.79324165     0.00600
C2995       C  0.55717365  0.09478913  0.78023264    -0.08000
C2996       C  0.54454077  0.08206886  0.76212380    -0.05400
C2997       C  0.54865129  0.05739096  0.75727448     0.00500
C2998       C  0.56530722  0.04478826  0.77232584    -0.07900
C2999       C  0.56907644  0.01766672  0.77095048     0.62500
H3000       H  0.59251169  0.04900005  0.80013490     0.13100
H3001       H  0.53179226  0.09175141  0.75112801     0.13200
C3002       C  0.55114525  0.12102401  0.78545504     0.62700
F3003       F  0.58120588  0.00909032  0.79101907    -0.22500
F3004       F  0.58263015  0.01207446  0.75098146    -0.19800
F3005       F  0.54716376  0.00581713  0.76978352    -0.19500
F3006       F  0.57006467  0.13576435  0.77888580    -0.19500
F3007       F  0.54679244  0.12402404  0.80976559    -0.19900
F3008       F  0.53084662  0.12840928  0.77297547    -0.22500
C3009       C  0.56984329  0.99142808  0.69537628    -0.05400
C3010       C  0.54514286  0.99583915  0.69163393     0.00600
C3011       C  0.53217957  0.97995639  0.67585246    -0.08000
C3012       C  0.54473937  0.96138544  0.66378849    -0.05400
C3013       C  0.56953582  0.95789642  0.66687466     0.00500
C3014       C  0.58218844  0.97262384  0.68357839    -0.07900
C3015       C  0.60866862  0.96857784  0.68900243     0.62500
H3016       H  0.57986822  0.00344810  0.70706740     0.13100
H3017       H  0.53537323  0.94970161  0.65114943     0.13200
C3018       C  0.50535938  0.98243629  0.67111196     0.62700
F3019       F  0.61629192  0.98183209  0.70882575    -0.22500
F3020       F  0.62238548  0.97545807  0.66955157    -0.19800
F3021       F  0.61272609  0.94444111  0.69382415    -0.19500
F3022       F  0.50118870  0.00283513  0.65744536    -0.19500
F3023       F  0.49307251  0.98394876  0.69264039    -0.19900
F3024       F  0.49611091  0.96283093  0.65853813    -0.22500
C3025       C  0.06885216  0.04940252  0.44509687    -0.05400
C3026       C  0.04626262  0.05863202  0.45122215     0.00600
C3027       C  0.03600601  0.07759319  0.43768010    -0.08000
C3028       C  0.04884599  0.08676901  0.41809247    -0.05400
C3029       C  0.07115851  0.07709800  0.41160046     0.00500
C3030       C  0.08153797  0.05828576  0.42523933    -0.07900
C3031       C  0.10568891  0.04755654  0.41857071     0.62500
H3032       H  0.07584058  0.03424728  0.45521149     0.13100
H3033       H  0.04155797  0.10146813  0.40753241     0.13200
C3034       C  0.01135275  0.08756896  0.44374244     0.62700
F3035       F  0.11143741  0.02790671  0.43280210    -0.22500
F3036       F  0.12349294  0.06481807  0.42146085    -0.19800
F3037       F  0.10527941  0.03987115  0.39486645    -0.19500
F3038       F  0.01133862  0.09573052  0.46728657    -0.19500
F3039       F  0.99413684  0.06972352  0.44118971    -0.19900
F3040       F  0.00498186  0.10655887  0.42890057    -0.22500
C3041       C  0.92386958  0.05555652  0.58612430    -0.05400
C3042       C  0.91796441  0.07913813  0.57938262     0.00600
C3043       C  0.93238911  0.09158302  0.56249252    -0.08000
C3044       C  0.95146154  0.07919116  0.55152398    -0.05400
C3045       C  0.95647551  0.05513950  0.55727191     0.00500
C3046       C  0.94303489  0.04326795  0.57533942    -0.07900
C3047       C  0.94860283  0.01747096  0.58270780     0.62500
H3048       H  0.91312806  0.04680290  0.59977653     0.13100
H3049       H  0.96161124  0.08764965  0.53724597     0.13200
C3050       C  0.92717165  0.11755591  0.55563327     0.62700
F3051       F  0.93557617  0.01054166  0.60270641    -0.22500
F3052       F  0.97279322  0.01544945  0.58825045    -0.19800
F3053       F  0.94300150  0.00175137  0.56413752    -0.19500
F3054       F  0.92951782  0.13234519  0.57560621    -0.19500
F3055       F  0.90400287  0.11929385  0.54665729    -0.19900
F3056       F  0.94282588  0.12590262  0.53823034    -0.22500
C3057       C  0.06952504  0.94384257  0.58393998    -0.05400
C3058       C  0.08542121  0.92964591  0.57041401     0.00600
C3059       C  0.08934237  0.93494335  0.54586607    -0.08000
C3060       C  0.07572033  0.95337398  0.53515141    -0.05400
C3061       C  0.05850322  0.96635367  0.54823998     0.00500
C3062       C  0.05573640  0.96211707  0.57311080    -0.07900
C3063       C  0.03764683  0.97631774  0.58775026     0.62500
H3064       H  0.06744826  0.93989833  0.60289437     0.13100
H3065       H  0.07716992  0.95665752  0.51599818     0.13200
C3066       C  0.10735223  0.92078642  0.53100631     0.62700
F3067       F  0.03748997  0.96921010  0.61160846    -0.22500
F3068       F  0.01475242  0.97298203  0.57844159    -0.19800
F3069       F  0.04341177  0.00061249  0.58692544    -0.19500
F3070       F  0.10027755  0.89689470  0.52931556    -0.19500
F3071       F  0.12982116  0.92199586  0.54175950    -0.19900
F3072       F  0.10929068  0.92976999  0.50787742    -0.22500
C3073       C  0.90146831  0.07703816  0.43311723    -0.05400
C3074       C  0.91484588  0.08942829  0.41576363     0.00600
C3075       C  0.93725658  0.08012830  0.40838452    -0.08000
C3076       C  0.94567788  0.05867258  0.41896901    -0.05400
C3077       C  0.93294881  0.04667630  0.43733543     0.00500
C3078       C  0.91010763  0.05589679  0.44425117    -0.07900
C3079       C  0.89451150  0.04353173  0.46290693     0.62500
H3080       H  0.88401349  0.08419683  0.43785282     0.13100
H3081       H  0.96283586  0.05153656  0.41333968     0.13200
C3082       C  0.95210837  0.09283972  0.38932970     0.62700
F3083       F  0.87136276  0.05266280  0.46301976    -0.22500
F3084       F  0.90419203  0.04702135  0.48564508    -0.19800
F3085       F  0.89295173  0.01907463  0.45791235    -0.19500
F3086       F  0.95730611  0.11614906  0.39675004    -0.19500
F3087       F  0.93941235  0.09365225  0.36787960    -0.19900
F3088       F  0.97367062  0.08116531  0.38511311    -0.22500
C3089       C  0.82362182  0.45791318  0.70522861    -0.05400
C3090       C  0.80030480  0.44962615  0.71006115     0.00600
C3091       C  0.79104302  0.42929416  0.69759752    -0.08000
C3092       C  0.80455300  0.41920134  0.67889471    -0.05400
C3093       C  0.82722095  0.42843620  0.67297640     0.00500
C3094       C  0.83755221  0.44725956  0.68699119    -0.07900
C3095       C  0.86283998  0.45636560  0.68215402     0.62500
H3096       H  0.83020130  0.47371876  0.71477963     0.13100
H3097       H  0.79731161  0.40428367  0.66842393     0.13200
C3098       C  0.76617494  0.41940803  0.70295788     0.62700
F3099       F  0.86892532  0.47568357  0.69688218    -0.22500
F3100       F  0.86464471  0.46376780  0.65849142    -0.19800
F3101       F  0.87923154  0.43810835  0.68631955    -0.19500
F3102       F  0.74890770  0.43376990  0.69220431    -0.19500
F3103       F  0.76243166  0.41906957  0.72755640    -0.19900
F3104       F  0.76351670  0.39603338  0.69440922    -0.22500
C3105       C  0.66718872  0.44952924  0.69263902    -0.05400
C3106       C  0.68330309  0.46291686  0.67839050     0.00600
C3107       C  0.68752579  0.45542691  0.65432103    -0.08000
C3108       C  0.67604769  0.43430502  0.64581924    -0.05400
C3109       C  0.66058727  0.42078104  0.66045047     0.00500
C3110       C  0.65566797  0.42863285  0.68410283    -0.07900
C3111       C  0.63780201  0.41544317  0.70003541     0.62500
H3112       H  0.66398839  0.45525672  0.71098283     0.13100
H3113       H  0.67887150  0.42816958  0.62752126     0.13200
C3114       C  0.70334681  0.46979261  0.63739734     0.62700
F3115       F  0.63681550  0.42538463  0.72291626    -0.22500
F3116       F  0.64424253  0.39149475  0.70242891    -0.19800
F3117       F  0.61507092  0.41671623  0.68990725    -0.19500
F3118       F  0.72720874  0.46742404  0.64403749    -0.19500
F3119       F  0.69693599  0.49390259  0.63809321    -0.19900
F3120       F  0.70097465  0.46186116  0.61382252    -0.22500
C3121       C  0.80290697  0.58068465  0.69930907    -0.05400
C3122       C  0.78978544  0.56453881  0.68449208     0.00600
C3123       C  0.79742862  0.56067704  0.66042238    -0.08000
C3124       C  0.81753835  0.57362300  0.65211468    -0.05400
C3125       C  0.83027746  0.58973862  0.66700951     0.00500
C3126       C  0.82305256  0.59333641  0.69103549    -0.07900
C3127       C  0.83643978  0.61051548  0.70783119     0.62500
H3128       H  0.79758816  0.58306429  0.71786604     0.13100
H3129       H  0.82353262  0.57141570  0.63372545     0.13200
C3130       C  0.78471727  0.54323994  0.64339952     0.62700
F3131       F  0.82588650  0.61175778  0.73032858    -0.22500
F3132       F  0.83660375  0.63352004  0.69827413    -0.19800
F3133       F  0.85985075  0.60274591  0.71086784    -0.19500
F3134       F  0.76019161  0.54730992  0.64362704    -0.19500
F3135       F  0.78938394  0.51973473  0.65032180    -0.19900
F3136       F  0.79245372  0.54593622  0.61991527    -0.22500
C3137       C  0.65082007  0.56988497  0.81380757    -0.05400
C3138       C  0.66141134  0.59136196  0.82192398     0.00600
C3139       C  0.68006193  0.60218322  0.80861356    -0.08000
C3140       C  0.68844763  0.59025158  0.78800513    -0.05400
C3141       C  0.67843870  0.56819635  0.77997913     0.00500
C3142       C  0.65828122  0.55843527  0.79254294    -0.07900
C3143       C  0.64408387  0.53648291  0.78383396     0.62500
H3144       H  0.63601073  0.56257035  0.82408756     0.13100
H3145       H  0.70328257  0.59807693  0.77819669     0.13200
C3146       C  0.69059495  0.62653151  0.81577646     0.62700
F3147       F  0.62278380  0.53366665  0.79634008    -0.22500
F3148       F  0.65737164  0.51566215  0.78704420    -0.19800
F3149       F  0.63814861  0.53917417  0.75977306    -0.19500
F3150       F  0.69773753  0.62635259  0.83963801    -0.19500
F3151       F  0.67340783  0.64422623  0.81253037    -0.19900
F3152       F  0.71047028  0.63245449  0.80209072    -0.22500
C3153       C  0.47878407  0.53695896  0.17326695    -0.05400
C3154       C  0.49335040  0.55131279  0.18846045     0.00600
C3155       C  0.48802221  0.57633101  0.19091038    -0.08000
C3156       C  0.46793314  0.58565709  0.17863822    -0.05400
C3157       C  0.45357363  0.57128499  0.16351369     0.00500
C3158       C  0.45907773  0.54654286  0.16050759    -0.07900
C3159       C  0.44469713  0.53048775  0.14349373     0.62500
H3160       H  0.48309828  0.51800230  0.17130573     0.13100
H3161       H  0.46335162  0.60458145  0.18042938     0.13200
C3162       C  0.50358643  0.59356770  0.20559014     0.62700
F3163       F  0.42107622  0.52915659  0.15090971    -0.22500
F3164       F  0.45372285  0.50720997  0.14269526    -0.19800
F3165       F  0.44542982  0.53983788  0.12047718    -0.19500
F3166       F  0.52752286  0.59073931  0.19959145    -0.19500
F3167       F  0.50040206  0.58909977  0.22981054    -0.19900
F3168       F  0.49764385  0.61747743  0.20141233    -0.22500
C3169       C  0.58834951  0.46015955  0.17421848    -0.05400
C3170       C  0.57870573  0.45606839  0.15130008     0.00600
C3171       C  0.55919959  0.47008930  0.14318791    -0.08000
C3172       C  0.54959767  0.48766979  0.15871680    -0.05400
C3173       C  0.55867597  0.49177438  0.18227522     0.00500
C3174       C  0.57878425  0.47763840  0.18998311    -0.07900
C3175       C  0.58955220  0.47951077  0.21497105     0.62500
H3176       H  0.60335286  0.44901821  0.17975761     0.13100
H3177       H  0.53455221  0.49820490  0.15230802     0.13200
C3178       C  0.54853590  0.46629145  0.11820939     0.62700
F3179       F  0.60882572  0.46406202  0.21825768    -0.22500
F3180       F  0.57211972  0.47311521  0.23128382    -0.19800
F3181       F  0.59780249  0.50271728  0.21932508    -0.19500
F3182       F  0.53965374  0.44302924  0.11608947    -0.19500
F3183       F  0.56607993  0.46984571  0.10104044    -0.19900
F3184       F  0.52988309  0.48211902  0.11349716    -0.22500
C3185       C  0.48192669  0.67592866  0.04921389    -0.05400
C3186       C  0.50008648  0.68528220  0.06437895     0.00600
C3187       C  0.49755338  0.68288864  0.08973771    -0.08000
C3188       C  0.47588953  0.67362754  0.09874360    -0.05400
C3189       C  0.45785215  0.66444882  0.08353195     0.00500
C3190       C  0.46116628  0.66478164  0.05833301    -0.07900
C3191       C  0.44339180  0.65270535  0.04120952     0.62500
H3192       H  0.48404244  0.67749683  0.02996550     0.13100
H3193       H  0.47356677  0.67215208  0.11806165     0.13200
C3194       C  0.51718507  0.68777440  0.10827518     0.62700
F3195       F  0.45098040  0.65387397  0.01754719    -0.22500
F3196       F  0.42125783  0.66383984  0.04257832    -0.19800
F3197       F  0.44087043  0.62861373  0.04719214    -0.19500
F3198       F  0.51002924  0.70623798  0.12341933    -0.19500
F3199       F  0.53907730  0.69369740  0.09831760    -0.19900
F3200       F  0.52060866  0.66720892  0.12196441    -0.22500
C3201       C  0.55614100  0.78918950  0.08806484    -0.05400
C3202       C  0.57962549  0.79533679  0.08123011     0.00600
C3203       C  0.59021512  0.78307494  0.06155715    -0.08000
C3204       C  0.57807132  0.76315666  0.05143287    -0.05400
C3205       C  0.55520668  0.75570040  0.05935181     0.00500
C3206       C  0.54327199  0.77022017  0.07680053    -0.07900
C3207       C  0.51686694  0.76681197  0.08287356     0.62500
H3208       H  0.54793172  0.79943628  0.10247266     0.13100
H3209       H  0.58696130  0.75310246  0.03729522     0.13200
C3210       C  0.61421202  0.78991643  0.05050413     0.62700
F3211       F  0.50780763  0.78649168  0.09526506    -0.22500
F3212       F  0.51389702  0.74671309  0.09715944    -0.19800
F3213       F  0.50347671  0.76420274  0.06193729    -0.19500
F3214       F  0.62961428  0.77039133  0.05176764    -0.19500
F3215       F  0.62529848  0.80939574  0.06156776    -0.19900
F3216       F  0.61059232  0.79576631  0.02658134    -0.22500
C3217       C  0.55824714  0.66635382  0.96060190    -0.05400
C3218       C  0.58088851  0.67541053  0.95447875     0.00600
C3219       C  0.59174674  0.69343465  0.96894330    -0.08000
C3220       C  0.57952798  0.70166992  0.98947116    -0.05400
C3221       C  0.55704254  0.69215339  0.99639790     0.00500
C3222       C  0.54607108  0.67409816  0.98141924    -0.07900
C3223       C  0.52175586  0.66278808  0.98680498     0.62500
H3224       H  0.55061123  0.65236001  0.94919973     0.13100
H3225       H  0.58799249  0.71529919  0.00068926     0.13200
C3226       C  0.61638179  0.70354878  0.96290552     0.62700
F3227       F  0.51399601  0.64757123  0.96847258    -0.22500
F3228       F  0.50469012  0.68068600  0.98938772    -0.19800
F3229       F  0.52322026  0.64915012  0.00756136    -0.19500
F3230       F  0.61590563  0.71357744  0.94015964    -0.19500
F3231       F  0.63324359  0.68526248  0.96349657    -0.19900
F3232       F  0.62359937  0.72129711  0.97904675    -0.22500
C3233       C  0.66556382  0.49029333  0.03758209    -0.05400
C3234       C  0.69070974  0.49123790  0.04082637     0.00600
C3235       C  0.70240689  0.47150856  0.05225398    -0.08000
C3236       C  0.68818169  0.45293184  0.06209477    -0.05400
C3237       C  0.66307536  0.45275582  0.05953147     0.00500
C3238       C  0.65169427  0.47086535  0.04580589    -0.07900
C3239       C  0.62493544  0.47036271  0.04013297     0.62500
H3240       H  0.65650637  0.50502203  0.02854491     0.13100
H3241       H  0.69652303  0.43842102  0.07211992     0.13200
C3242       C  0.72959916  0.46933959  0.05336884     0.62700
F3243       F  0.62024446  0.48200538  0.01860117    -0.22500
F3244       F  0.61252104  0.48191032  0.05828795    -0.19800
F3245       F  0.61646920  0.44694053  0.03780068    -0.19500
F3246       F  0.73899294  0.48612096  0.06932689    -0.19500
F3247       F  0.73914675  0.47303208  0.03073329    -0.19900
F3248       F  0.73672085  0.44665802  0.06097967    -0.22500
C3249       C  0.75986821  0.54584214  0.07000307    -0.05400
C3250       C  0.75567103  0.55311981  0.04606516     0.00600
C3251       C  0.77164163  0.57040735  0.03567366    -0.08000
C3252       C  0.78943918  0.58122894  0.05042636    -0.05400
C3253       C  0.79232261  0.57490900  0.07466396     0.00500
C3254       C  0.77817410  0.55612976  0.08432410    -0.07900
C3255       C  0.78263670  0.54685662  0.10962414     0.62500
H3256       H  0.74821276  0.53239479  0.07786838     0.13100
H3257       H  0.80089332  0.59533718  0.04333437     0.13200
C3258       C  0.77019888  0.57791772  0.00939431     0.62700
F3259       F  0.76805828  0.52730668  0.11496358    -0.22500
F3260       F  0.77815836  0.56486169  0.12626745    -0.19800
F3261       F  0.80630804  0.53955650  0.11182431    -0.19500
F3262       F  0.75072300  0.59299960  0.00594729    -0.19500
F3263       F  0.76802766  0.55779994  0.99467946    -0.19900
F3264       F  0.79064980  0.59028120  0.00233186    -0.22500
C3265       C  0.66789772  0.56123858  0.94697534    -0.05400
C3266       C  0.66847420  0.58659850  0.94807584     0.00600
C3267       C  0.68210631  0.59811847  0.96650379    -0.08000
C3268       C  0.69285632  0.58386632  0.98440290    -0.05400
C3269       C  0.69189092  0.55855917  0.98367202     0.00500
C3270       C  0.68005266  0.54692044  0.96404556    -0.07900
C3271       C  0.68090659  0.51968200  0.96046213     0.62500
H3272       H  0.65784374  0.55271209  0.93248794     0.13100
H3273       H  0.70200280  0.59260016  0.99935201     0.13200
C3274       C  0.68594881  0.62528535  0.96728703     0.62700
F3275       F  0.67331484  0.51302959  0.93760248    -0.22500
F3276       F  0.66610402  0.50837176  0.97687194    -0.19800
F3277       F  0.70424822  0.51151391  0.96337882    -0.19500
F3278       F  0.66610031  0.63649842  0.97704826    -0.19500
F3279       F  0.68990699  0.63411162  0.94439862    -0.19900
F3280       F  0.70581382  0.63128898  0.98125498    -0.22500
C3281       C  0.55092855  0.57030321  0.25835462    -0.05400
C3282       C  0.55169396  0.54505724  0.25547435     0.00600
C3283       C  0.56252751  0.53112087  0.27403091    -0.08000
C3284       C  0.57556915  0.54310494  0.29235001    -0.05400
C3285       C  0.57553781  0.56835901  0.29447047     0.00500
C3286       C  0.56147713  0.58207599  0.27823814    -0.07900
C3287       C  0.55640736  0.60869224  0.28259959     0.62500
H3288       H  0.54215056  0.58099335  0.24470592     0.13100
H3289       H  0.58525370  0.53260687  0.30567356     0.13200
C3290       C  0.56003520  0.50401223  0.27630321     0.62700
F3291       F  0.57740553  0.62203273  0.28254481    -0.22500
F3292       F  0.54531071  0.61135639  0.30465817    -0.19800
F3293       F  0.54129836  0.61816775  0.26514800    -0.19500
F3294       F  0.58193871  0.49342279  0.27143605    -0.19500
F3295       F  0.54244802  0.49459985  0.26126358    -0.19900
F3296       F  0.55367343  0.49820380  0.29963429    -0.22500
C3297       C  0.69922491  0.67084947  0.27137611    -0.05400
C3298       C  0.68443991  0.68543621  0.25677121     0.00600
C3299       C  0.65911874  0.68472180  0.26047491    -0.08000
C3300       C  0.64981995  0.67030723  0.27918633    -0.05400
C3301       C  0.66469746  0.65626502  0.29401098     0.00500
C3302       C  0.68978577  0.65603907  0.28972599    -0.07900
C3303       C  0.70643914  0.63968526  0.30398674     0.62500
H3304       H  0.71843574  0.67112962  0.26830863     0.13100
H3305       H  0.63064844  0.66984592  0.28248579     0.13200
C3306       C  0.64172239  0.69844637  0.24445478     0.62700
F3307       F  0.72918865  0.63880371  0.29405236    -0.22500
F3308       F  0.69732657  0.61641467  0.30423642    -0.19800
F3309       F  0.70865663  0.64800952  0.32736388    -0.19500
F3310       F  0.64621065  0.69321341  0.22052083    -0.19500
F3311       F  0.64426159  0.72295093  0.24854707    -0.19900
F3312       F  0.61802252  0.69236417  0.24899808    -0.22500
C3313       C  0.74965229  0.66382117  0.19770784    -0.05400
C3314       C  0.74441235  0.68798650  0.19130626     0.00600
C3315       C  0.75784920  0.69847120  0.17203458    -0.08000
C3316       C  0.77529446  0.68439000  0.16017735    -0.05400
C3317       C  0.78032443  0.66065783  0.16695919     0.00500
C3318       C  0.76749049  0.65012283  0.18605916    -0.07900
C3319       C  0.77291692  0.62453803  0.19417542     0.62500
H3320       H  0.73976463  0.65549022  0.21218420     0.13100
H3321       H  0.78581131  0.69198059  0.14569640     0.13200
C3322       C  0.75521880  0.72462031  0.16447711     0.62700
F3323       F  0.75876008  0.61764337  0.21338207    -0.22500
F3324       F  0.79671680  0.62280862  0.20129263    -0.19800
F3325       F  0.76871951  0.60861421  0.17537905    -0.19500
F3326       F  0.76018757  0.73922676  0.18405731    -0.19500
F3327       F  0.73224469  0.72882975  0.15583458    -0.19900
F3328       F  0.77107984  0.73093815  0.14642021    -0.22500
C3329       C  0.66127810  0.75733933  0.20087185    -0.05400
C3330       C  0.68653757  0.75618703  0.20184633     0.00600
C3331       C  0.69978359  0.77614922  0.19280046    -0.08000
C3332       C  0.68775567  0.79360837  0.17883927    -0.05400
C3333       C  0.66254595  0.79410102  0.17690079     0.00500
C3334       C  0.64906676  0.77675795  0.18991790    -0.07900
C3335       C  0.62214403  0.77938828  0.19351164     0.62500
H3336       H  0.65096337  0.74271234  0.20849656     0.13100
H3337       H  0.69812797  0.80782999  0.17039584     0.13200
C3338       C  0.72576210  0.78148628  0.19927400     0.62700
F3339       F  0.61377589  0.76373825  0.21096829    -0.22500
F3340       F  0.60980391  0.77451717  0.17242758    -0.19800
F3341       F  0.61703970  0.80267788  0.20095002    -0.19500
F3342       F  0.73956901  0.78129045  0.17868062    -0.19500
F3343       F  0.73512464  0.76540596  0.21578808    -0.19900
F3344       F  0.72718472  0.80428896  0.20950812    -0.22500
C3345       C  0.04997584  0.32265381  0.80307643    -0.05400
C3346       C  0.03348565  0.30733598  0.81466707     0.00600
C3347       C  0.03637973  0.30242688  0.83956771    -0.08000
C3348       C  0.05591847  0.31296701  0.85187061    -0.05400
C3349       C  0.07257583  0.32770583  0.84002303     0.00500
C3350       C  0.06960249  0.33292967  0.81531917    -0.07900
C3351       C  0.08709763  0.34913485  0.80188488     0.62500
H3352       H  0.04800766  0.32573590  0.78392903     0.13100
H3353       H  0.05843065  0.30982821  0.87095433     0.13200
C3354       C  0.01910577  0.28627391  0.85322328     0.62700
F3355       F  0.10909173  0.33777535  0.79988325    -0.22500
F3356       F  0.09017667  0.37079104  0.81400507    -0.19800
F3357       F  0.07894483  0.35435690  0.77890043    -0.19500
F3358       F  0.02295134  0.26239775  0.84699796    -0.19500
F3359       F  0.99560510  0.29251205  0.84786406    -0.19900
F3360       F  0.02224277  0.28839980  0.87787769    -0.22500
C3361       C  0.67051340  0.41614966  0.80253918    -0.05400
C3362       C  0.65941054  0.42819986  0.82178155     0.00600
C3363       C  0.66581406  0.45239494  0.82718477    -0.08000
C3364       C  0.68460739  0.46311653  0.81427052    -0.05400
C3365       C  0.69553928  0.45120308  0.79496696     0.00500
C3366       C  0.68775143  0.42783343  0.78819811    -0.07900
C3367       C  0.69679302  0.41607024  0.76527346     0.62500
H3368       H  0.66487097  0.39786979  0.79832413     0.13100
H3369       H  0.68982128  0.48163523  0.81802429     0.13200
C3370       C  0.65206807  0.46721624  0.84553753     0.62700
F3371       F  0.68725958  0.39316922  0.76197137    -0.22500
F3372       F  0.72157612  0.41427609  0.76615423    -0.19800
F3373       F  0.69028210  0.42995068  0.74564342    -0.19500
F3374       F  0.65415756  0.45694537  0.86806560    -0.19500
F3375       F  0.62805686  0.46810745  0.83901073    -0.19900
F3376       F  0.66050989  0.49075200  0.84693395    -0.22500
C3377       C  0.33413140  0.53115997  0.91735388    -0.05400
C3378       C  0.31888693  0.54940028  0.90860993     0.00600
C3379       C  0.29366240  0.54663039  0.91125315    -0.08000
C3380       C  0.28494308  0.52700068  0.92473952    -0.05400
C3381       C  0.30019197  0.50883558  0.93362015     0.00500
C3382       C  0.32512947  0.51012598  0.92835265    -0.07900
C3383       C  0.34174516  0.48857731  0.93150111     0.62500
H3384       H  0.35325450  0.53297846  0.91420728     0.13100
H3385       H  0.26586146  0.52557227  0.92818813     0.13200
C3386       C  0.27580354  0.56328872  0.89890491     0.62700
F3387       F  0.36436111  0.49296635  0.92211910    -0.22500
F3388       F  0.33210864  0.46885430  0.91946193    -0.19800
F3389       F  0.34470301  0.48297411  0.95547067    -0.19500
F3390       F  0.28210768  0.56644481  0.87508324    -0.19500
F3391       F  0.27531365  0.58544532  0.91032957    -0.19900
F3392       F  0.25272395  0.55380234  0.89925961    -0.22500
C3393       C  0.22625357  0.42884091  0.95554118    -0.05400
C3394       C  0.23261320  0.45098454  0.94468241     0.00600
C3395       C  0.21750046  0.46011786  0.92592737    -0.08000
C3396       C  0.19786311  0.44593021  0.91799814    -0.05400
C3397       C  0.19294514  0.42325203  0.92789449     0.00500
C3398       C  0.20693053  0.41468558  0.94725728    -0.07900
C3399       C  0.20212635  0.39010874  0.95833605     0.62500
H3400       H  0.23728177  0.42181806  0.96998026     0.13100
H3401       H  0.18666697  0.45190947  0.90316870     0.13200
C3402       C  0.22164477  0.48440673  0.91396195     0.62700
F3403       F  0.21636481  0.38609133  0.97844779    -0.22500
F3404       F  0.20691762  0.37220187  0.94165120    -0.19800
F3405       F  0.17834724  0.38841364  0.96527517    -0.19500
F3406       F  0.24223216  0.48359570  0.90015484    -0.19500
F3407       F  0.22375133  0.50229672  0.93128126    -0.19900
F3408       F  0.20274079  0.49065851  0.89889178    -0.22500
C3409       C  0.29424510  0.42696192  0.00736713    -0.05400
C3410       C  0.29996572  0.45121733  0.00230741     0.00600
C3411       C  0.31610908  0.46358565  0.01795067    -0.08000
C3412       C  0.32850962  0.45031335  0.03566810    -0.05400
C3413       C  0.32322542  0.42593712  0.04028925     0.00500
C3414       C  0.30472621  0.41440877  0.02669818    -0.07900
C3415       C  0.29489248  0.38928286  0.03171198     0.62500
H3416       H  0.28111854  0.41757876  0.99622594     0.13100
H3417       H  0.34210176  0.45919244  0.04664323     0.13200
C3418       C  0.31902433  0.49084209  0.01755598     0.62700
F3419       F  0.27045362  0.39086632  0.03592393    -0.22500
F3420       F  0.30535681  0.37836792  0.05145746    -0.19800
F3421       F  0.29840707  0.37467408  0.01178378    -0.19500
F3422       F  0.29703297  0.50184111  0.01366332    -0.19500
F3423       F  0.33480636  0.49744852  0.99967129    -0.19900
F3424       F  0.32791589  0.49939526  0.03932085    -0.22500
C3425       C  0.51569647  0.40815885  0.82175770    -0.05400
C3426       C  0.53406908  0.42279329  0.83143854     0.00600
C3427       C  0.53175990  0.44825211  0.83025746    -0.08000
C3428       C  0.51254218  0.45800853  0.81697254    -0.05400
C3429       C  0.49446814  0.44340712  0.80664251     0.00500
C3430       C  0.49535668  0.41804940  0.81027108    -0.07900
C3431       C  0.47458754  0.40146186  0.80338460     0.62500
H3432       H  0.51731886  0.38874529  0.82350013     0.13100
H3433       H  0.51136947  0.47745465  0.81514527     0.13200
C3434       C  0.54837875  0.46600694  0.84309338     0.62700
F3435       F  0.47640410  0.37927575  0.81466112    -0.22500
F3436       F  0.47445512  0.39751551  0.77886987    -0.19800
F3437       F  0.45293725  0.41160347  0.81016356    -0.19500
F3438       F  0.56091429  0.47919309  0.82619173    -0.19500
F3439       F  0.56468054  0.45511950  0.85842102    -0.19900
F3440       F  0.53474770  0.48169360  0.85679941    -0.22500
C3441       C  0.41824496  0.52269249  0.79004950    -0.05400
C3442       C  0.43471508  0.50973090  0.80445430     0.00600
C3443       C  0.43870555  0.51775484  0.82867753    -0.08000
C3444       C  0.42495226  0.53724406  0.83754948    -0.05400
C3445       C  0.40808219  0.54935012  0.82320075     0.00500
C3446       C  0.40503741  0.54242000  0.79889234    -0.07900
C3447       C  0.38768965  0.55565648  0.78239527     0.62500
H3448       H  0.41554963  0.51719650  0.77152907     0.13100
H3449       H  0.42716086  0.54331130  0.85598376     0.13200
C3450       C  0.45713417  0.50625641  0.84543002     0.62700
F3451       F  0.38762971  0.54617040  0.75930356    -0.22500
F3452       F  0.39418275  0.57970163  0.78088528    -0.19800
F3453       F  0.36460043  0.55398883  0.79130489    -0.19500
F3454       F  0.47988989  0.50863885  0.83578619    -0.19500
F3455       F  0.45173844  0.48210599  0.84879100    -0.19900
F3456       F  0.45759502  0.51714926  0.86790544    -0.22500
C3457       C  0.40841387  0.45054723  0.73883949    -0.05400
C3458       C  0.43347412  0.44732049  0.74080834     0.00600
C3459       C  0.44558785  0.43467017  0.72214628    -0.08000
C3460       C  0.43180233  0.42343535  0.70386772    -0.05400
C3461       C  0.40669043  0.42553247  0.70291277     0.00500
C3462       C  0.39485925  0.44033111  0.71990298    -0.07900
C3463       C  0.36816126  0.44580431  0.71769121     0.62500
H3464       H  0.39929141  0.46089985  0.75257528     0.13100
H3465       H  0.44052710  0.41253520  0.69026634     0.13200
C3466       C  0.47282150  0.43365932  0.72067457     0.62700
F3467       F  0.35472178  0.42502639  0.72063775    -0.22500
F3468       F  0.36337963  0.45536771  0.69520875    -0.19800
F3469       F  0.36076944  0.46238231  0.73481453    -0.19500
F3470       F  0.48175972  0.41788733  0.73762569    -0.19500
F3471       F  0.48251082  0.45638835  0.72455314    -0.19900
F3472       F  0.48035250  0.42580066  0.69826206    -0.22500
C3473       C  0.54313051  0.33620837  0.94131822    -0.05400
C3474       C  0.54418375  0.33298407  0.91634765     0.00600
C3475       C  0.52694401  0.31808849  0.90470559    -0.08000
C3476       C  0.50807937  0.30823872  0.91837615    -0.05400
C3477       C  0.50606141  0.31253878  0.94330887     0.00500
C3478       C  0.52454784  0.32602542  0.95516845    -0.07900
C3479       C  0.52505767  0.32983466  0.98224866     0.62500
H3480       H  0.55666644  0.34755077  0.94979952     0.13100
H3481       H  0.49432471  0.29759009  0.90939850     0.13200
C3482       C  0.52861326  0.31255842  0.87796131     0.62700
F3483       F  0.54720333  0.33834111  0.99010688    -0.22500
F3484       F  0.52075180  0.30823276  0.99392071    -0.19800
F3485       F  0.50784563  0.34660026  0.98866678    -0.19500
F3486       F  0.51170076  0.29558036  0.87071869    -0.19500
F3487       F  0.55116744  0.30350476  0.87280768    -0.19900
F3488       F  0.52486252  0.33330398  0.86473218    -0.22500
C3489       C  0.44493171  0.34453620  0.00545947    -0.05400
C3490       C  0.44484615  0.31911941  0.00698549     0.00600
C3491       C  0.43488090  0.30823777  0.02778697    -0.08000
C3492       C  0.42188408  0.32258912  0.04389760    -0.05400
C3493       C  0.42156906  0.34779111  0.04214389     0.00500
C3494       C  0.43418440  0.35918529  0.02318966    -0.07900
C3495       C  0.43681489  0.38651148  0.02193914     0.62500
H3496       H  0.45333604  0.35293306  0.99006747     0.13100
H3497       H  0.41293114  0.31408565  0.05897091     0.13200
C3498       C  0.43912701  0.28240081  0.03537474     0.62700
F3499       F  0.45219934  0.39345917  0.00370818    -0.22500
F3500       F  0.44608209  0.39519498  0.04345743    -0.19800
F3501       F  0.41483111  0.39720586  0.01763123    -0.19500
F3502       F  0.45671135  0.27131882  0.02195014    -0.19500
F3503       F  0.41784448  0.26956533  0.03367222    -0.19900
F3504       F  0.44677572  0.28200818  0.05913059    -0.22500
C3505       C  0.41510626  0.21635331  0.94396381    -0.05400
C3506       C  0.41947741  0.21340916  0.91939822     0.00600
C3507       C  0.43499131  0.22966166  0.90756525    -0.08000
C3508       C  0.44444586  0.24940337  0.92054292    -0.05400
C3509       C  0.44022624  0.25271658  0.94535716     0.00500
C3510       C  0.42566814  0.23530462  0.95738733    -0.07900
C3511       C  0.42184105  0.23576371  0.98425377     0.62500
H3512       H  0.40328908  0.20344690  0.95254380     0.13100
H3513       H  0.45566086  0.26229664  0.91122714     0.13200
C3514       C  0.44248516  0.22545080  0.88166623     0.62700
F3515       F  0.40957543  0.21555053  0.99228042    -0.22500
F3516       F  0.40848922  0.25582776  0.99030673    -0.19800
F3517       F  0.44390841  0.23617283  0.99573808    -0.19500
F3518       F  0.42257491  0.22517399  0.86667969    -0.19500
F3519       F  0.45416379  0.20349896  0.87999480    -0.19900
F3520       F  0.45801352  0.24323752  0.87361921    -0.22500
C3521       C  0.30337821  0.21497735  0.83818140    -0.05400
C3522       C  0.32826828  0.21363376  0.83464470     0.00600
C3523       C  0.33972800  0.23123520  0.82027046    -0.08000
C3524       C  0.32579874  0.24968775  0.80986944    -0.05400
C3525       C  0.30089355  0.25167059  0.81379053     0.00500
C3526       C  0.28937123  0.23381929  0.82833527    -0.07900
C3527       C  0.26259927  0.23431162  0.83388218     0.62500
H3528       H  0.29512854  0.20135547  0.84940185     0.13100
H3529       H  0.33463539  0.26336054  0.79919337     0.13200
C3530       C  0.36672586  0.23090731  0.81632624     0.62700
F3531       F  0.25505047  0.21338221  0.84518004    -0.22500
F3532       F  0.24937841  0.23651808  0.81284277    -0.19800
F3533       F  0.25764426  0.25344392  0.84912244    -0.19500
F3534       F  0.37398039  0.20814123  0.80915343    -0.19500
F3535       F  0.37847678  0.23712042  0.83744218    -0.19900
F3536       F  0.37364568  0.24713636  0.79877512    -0.22500
C3537       C  0.31078203  0.30084902  0.73568975    -0.05400
C3538       C  0.29780732  0.31577109  0.75161717     0.00600
C3539       C  0.29714604  0.34109959  0.74697372    -0.08000
C3540       C  0.30800152  0.34996536  0.72591886    -0.05400
C3541       C  0.32082113  0.33500285  0.71025843     0.00500
C3542       C  0.32288170  0.31010629  0.71546584    -0.07900
C3543       C  0.33876494  0.29365676  0.70049231     0.62500
H3544       H  0.31176471  0.28170689  0.73942675     0.13100
H3545       H  0.30707837  0.36902676  0.72168314     0.13200
C3546       C  0.28620565  0.35928574  0.76422529     0.62700
F3547       F  0.33928780  0.27036589  0.70945334    -0.22500
F3548       F  0.36204833  0.30251675  0.70058820    -0.19800
F3549       F  0.33043639  0.29247214  0.67705668    -0.19500
F3550       F  0.29321156  0.35445296  0.78762539    -0.19500
F3551       F  0.26148794  0.35847314  0.76237186    -0.19900
F3552       F  0.29351514  0.38265246  0.75910171    -0.22500
C3553       C  0.23741610  0.31206671  0.84176714    -0.05400
C3554       C  0.23610765  0.31189279  0.81649635     0.00600
C3555       C  0.21438550  0.31900816  0.80508716    -0.08000
C3556       C  0.19581184  0.32852372  0.81938001    -0.05400
C3557       C  0.19729397  0.32884015  0.84465748     0.00500
C3558       C  0.21790971  0.31900720  0.85605491    -0.07900
C3559       C  0.22015629  0.31490655  0.88298031     0.62500
H3560       H  0.25368520  0.30581484  0.85059092     0.13100
H3561       H  0.17981755  0.33575354  0.81086524     0.13200
C3562       C  0.21011162  0.31547947  0.77830854     0.62700
F3563       F  0.22848756  0.29173622  0.88708602    -0.22500
F3564       F  0.19850454  0.31718447  0.89484006    -0.19800
F3565       F  0.23647615  0.33119251  0.89266455    -0.19500
F3566       F  0.21677200  0.29240634  0.77149973    -0.19500
F3567       F  0.22330182  0.33210505  0.76550899    -0.19900
F3568       F  0.18609446  0.31838642  0.77225585    -0.22500
C3569       C  0.79358283  0.21087318  0.07086774    -0.05400
C3570       C  0.78320921  0.19914140  0.05093862     0.00600
C3571       C  0.78849413  0.17462076  0.04633631    -0.08000
C3572       C  0.80541357  0.16297837  0.06117074    -0.05400
C3573       C  0.81702625  0.17527079  0.08010683     0.00500
C3574       C  0.81045625  0.19930413  0.08571791    -0.07900
C3575       C  0.82168093  0.21286646  0.10679184     0.62500
H3576       H  0.78935509  0.22973796  0.07383150     0.13100
H3577       H  0.81024125  0.14434630  0.05775587     0.13200
C3578       C  0.77679018  0.16117831  0.02549031     0.62700
F3579       F  0.84632126  0.21416308  0.10393646    -0.22500
F3580       F  0.81663128  0.20108890  0.12805704    -0.19800
F3581       F  0.81293564  0.23619162  0.10865699    -0.19500
F3582       F  0.78226917  0.17238710  0.00399728    -0.19500
F3583       F  0.75211905  0.16105678  0.02847737    -0.19900
F3584       F  0.78450394  0.13745838  0.02412472    -0.22500
C3585       C  0.71643409  0.17316028  0.93578022    -0.05400
C3586       C  0.70559845  0.19562682  0.93973595     0.00600
C3587       C  0.68466954  0.20199616  0.92670945    -0.08000
C3588       C  0.67495596  0.18538064  0.91010934    -0.05400
C3589       C  0.68566810  0.16282477  0.90612628     0.00500
C3590       C  0.70665983  0.15641227  0.91924479    -0.07900
C3591       C  0.71844833  0.13192577  0.91603664     0.62500
H3592       H  0.73285427  0.16903229  0.94550105     0.13100
H3593       H  0.65862805  0.18967172  0.90030954     0.13200
C3594       C  0.67294239  0.22644184  0.93021584     0.62700
F3595       F  0.73823472  0.12918378  0.93102803    -0.22500
F3596       F  0.72609966  0.12934717  0.89255146    -0.19800
F3597       F  0.70217504  0.11377998  0.92128287    -0.19500
F3598       F  0.68829273  0.24438038  0.92236269    -0.19500
F3599       F  0.66809721  0.23011106  0.95433998    -0.19900
F3600       F  0.65154923  0.22828856  0.91749316    -0.22500
C3601       C  0.65186716  0.31300935  0.04440563    -0.05400
C3602       C  0.66129501  0.32814773  0.06244367     0.00600
C3603       C  0.68503365  0.32477027  0.07106232    -0.08000
C3604       C  0.69914262  0.30698092  0.06017272    -0.05400
C3605       C  0.69024132  0.29274490  0.04116454     0.00500
C3606       C  0.66611100  0.29519866  0.03346778    -0.07900
C3607       C  0.65578507  0.27951695  0.01346337     0.62500
H3608       H  0.63340842  0.31563812  0.03868537     0.13100
H3609       H  0.71781401  0.30492922  0.06546956     0.13200
C3610       C  0.69552635  0.34011554  0.09134705     0.62700
F3611       F  0.63242730  0.28596526  0.00768508    -0.22500
F3612       F  0.65570345  0.25569089  0.02083302    -0.19800
F3613       F  0.66952005  0.28163112  0.99289330    -0.19500
F3614       F  0.68167569  0.33760765  0.11176554    -0.19500
F3615       F  0.69599560  0.36413857  0.08470940    -0.19900
F3616       F  0.71882310  0.33338538  0.09709540    -0.22500
C3617       C  0.68416147  0.32694171  0.89699921    -0.05400
C3618       C  0.66990483  0.34227016  0.91097822     0.00600
C3619       C  0.67688709  0.34781807  0.93485463    -0.08000
C3620       C  0.69747847  0.33665287  0.94442563    -0.05400
C3621       C  0.71126562  0.32017152  0.93093761     0.00500
C3622       C  0.70492290  0.31587707  0.90638864    -0.07900
C3623       C  0.71960421  0.29980395  0.88985271     0.62500
H3624       H  0.67866547  0.32354420  0.87854937     0.13100
H3625       H  0.70224695  0.33996177  0.96306434     0.13200
C3626       C  0.66243890  0.36518659  0.95023221     0.62700
F3627       F  0.71400777  0.30378750  0.86587006    -0.22500
F3628       F  0.71494349  0.27580617  0.89478439    -0.19800
F3629       F  0.74388455  0.30447992  0.89288701    -0.19500
F3630       F  0.63978082  0.35572466  0.95417729    -0.19500
F3631       F  0.66025728  0.38715368  0.93868581    -0.19900
F3632       F  0.67325668  0.36933693  0.97238909    -0.22500
C3633       C  0.80581440  0.33961164  0.04432641    -0.05400
C3634       C  0.81370600  0.31605068  0.03870075     0.00600
C3635       C  0.83255296  0.30590339  0.05312686    -0.08000
C3636       C  0.84269607  0.31986976  0.07200291    -0.05400
C3637       C  0.83428059  0.34298780  0.07760170     0.00500
C3638       C  0.81535201  0.35297436  0.06380948    -0.07900
C3639       C  0.80479195  0.37743950  0.07021537     0.62500
H3640       H  0.79140601  0.34739351  0.03376127     0.13100
H3641       H  0.85711365  0.31271001  0.08301716     0.13200
C3642       C  0.84160833  0.28024942  0.04962176     0.62700
F3643       F  0.82214892  0.39518503  0.06800375    -0.22500
F3644       F  0.79664361  0.37713895  0.09368214    -0.19800
F3645       F  0.78558986  0.38341257  0.05543913    -0.19500
F3646       F  0.85061880  0.27751068  0.02663158    -0.19500
F3647       F  0.82304030  0.26401781  0.05331503    -0.19900
F3648       F  0.85987205  0.27454895  0.06565519    -0.22500
C3649       C  0.80371657  0.09827758  0.19124138    -0.05400
C3650       C  0.81027578  0.08904287  0.16877932     0.00600
C3651       C  0.79705107  0.06979121  0.15828219    -0.08000
C3652       C  0.77888981  0.05877914  0.17194625    -0.05400
C3653       C  0.77369250  0.06680568  0.19531168     0.00500
C3654       C  0.78517866  0.08775087  0.20452074    -0.07900
C3655       C  0.77923354  0.09890758  0.22868335     0.62500
H3656       H  0.81340905  0.11368898  0.19857844     0.13100
H3657       H  0.77015953  0.04250501  0.16536093     0.13200
C3658       C  0.80305245  0.06015872  0.13341216     0.62700
F3659       F  0.77584457  0.12350187  0.22593093    -0.22500
F3660       F  0.79816536  0.09521609  0.24446115    -0.19800
F3661       F  0.75849914  0.08935743  0.23849488    -0.19500
F3662       F  0.82584919  0.05026761  0.13364700    -0.19500
F3663       F  0.80228899  0.07865016  0.11676995    -0.19900
F3664       F  0.78694315  0.04248954  0.12598824    -0.22500
C3665       C  0.69767672  0.07488656  0.30700933    -0.05400
C3666       C  0.68528713  0.05712916  0.29373801     0.00600
C3667       C  0.66068508  0.05268478  0.29809681    -0.08000
C3668       C  0.64915551  0.06649200  0.31586187    -0.05400
C3669       C  0.66186225  0.08366431  0.32962147     0.00500
C3670       C  0.68643925  0.08818059  0.32516499    -0.07900
C3671       C  0.70074393  0.10677936  0.33956067     0.62500
H3672       H  0.71672498  0.07738550  0.30376382     0.13100
H3673       H  0.63025460  0.06368250  0.31958388     0.13200
C3674       C  0.64707996  0.03297440  0.28472181     0.62700
F3675       F  0.72434293  0.10836001  0.33189427    -0.22500
F3676       F  0.70117536  0.10061948  0.36363258    -0.19800
F3677       F  0.69033030  0.12927196  0.33706372    -0.19500
F3678       F  0.65815059  0.01094122  0.28837723    -0.19500
F3679       F  0.64681251  0.03807198  0.26038626    -0.19900
F3680       F  0.62351665  0.03106982  0.29244769    -0.22500
C3681       C  0.70805987  0.94438637  0.17586691    -0.05400
C3682       C  0.69460898  0.95869494  0.19175517     0.00600
C3683       C  0.66960187  0.95484193  0.19394871    -0.08000
C3684       C  0.65910013  0.93546628  0.18124134    -0.05400
C3685       C  0.67290256  0.92019913  0.16659476     0.00500
C3686       C  0.69755038  0.92520796  0.16298087    -0.07900
C3687       C  0.71266122  0.91023273  0.14587824     0.62500
H3688       H  0.72722883  0.94768784  0.17455207     0.13100
H3689       H  0.64005548  0.93172625  0.18294771     0.13200
C3690       C  0.65441252  0.97042114  0.21039419     0.62700
F3691       F  0.73600101  0.91888776  0.14439126    -0.22500
F3692       F  0.70268377  0.91076638  0.12303603    -0.19800
F3693       F  0.71357219  0.88660513  0.15374020    -0.19500
F3694       F  0.65631523  0.99433780  0.20355743    -0.19500
F3695       F  0.66226623  0.96806204  0.23393695    -0.19900
F3696       F  0.63035305  0.96396813  0.20937391    -0.22500
C3697       C  0.81621545  0.06830538  0.29792458    -0.05400
C3698       C  0.80160733  0.05271828  0.31153230     0.00600
C3699       C  0.79773991  0.05803084  0.33634644    -0.08000
C3700       C  0.80813378  0.07910587  0.34612758    -0.05400
C3701       C  0.82289858  0.09420684  0.33242516     0.00500
C3702       C  0.82742658  0.08863891  0.30806521    -0.07900
C3703       C  0.84531647  0.10308811  0.29328742     0.62500
H3704       H  0.81908587  0.06436532  0.27907885     0.13100
H3705       H  0.80562008  0.08358928  0.36493972     0.13200
C3706       C  0.78377743  0.04135597  0.35293605     0.62700
F3707       F  0.84611974  0.09524595  0.26962516    -0.22500
F3708       F  0.86805280  0.10062294  0.30316333    -0.19800
F3709       F  0.83919202  0.12723129  0.29305100    -0.19500
F3710       F  0.79174583  0.01787241  0.35015501    -0.19500
F3711       F  0.75944395  0.04253431  0.34779314    -0.19900
F3712       F  0.78690791  0.04760976  0.37692004    -0.22500
C3713       C  0.07513995  0.93769552  0.41473304    -0.05400
C3714       C  0.07870942  0.91393719  0.42238105     0.00600
C3715       C  0.06259071  0.90336261  0.43881051    -0.08000
C3716       C  0.04257630  0.91676594  0.44632462    -0.05400
C3717       C  0.03872025  0.94072190  0.43880801     0.00500
C3718       C  0.05582257  0.95168729  0.42309780    -0.07900
C3719       C  0.05491556  0.97823135  0.41605941     0.62500
H3720       H  0.08793424  0.94522424  0.40217259     0.13100
H3721       H  0.02994976  0.90864154  0.45866669     0.13200
C3722       C  0.06675266  0.87818407  0.44863054     0.62700
F3723       F  0.07419789  0.98486781  0.40182583    -0.22500
F3724       F  0.05568691  0.99247380  0.43654597    -0.19800
F3725       F  0.03413852  0.98291657  0.40313474    -0.19500
F3726       F  0.08983031  0.87650009  0.45788583    -0.19500
F3727       F  0.06379745  0.86132989  0.43044655    -0.19900
F3728       F  0.05085575  0.87265967  0.46690881    -0.22500
C3729       C  0.42872259  0.84525579  0.49276935    -0.05400
C3730       C  0.42320739  0.82069465  0.48876189     0.00600
C3731       C  0.40708654  0.80898224  0.50494852    -0.08000
C3732       C  0.39757624  0.82234738  0.52435477    -0.05400
C3733       C  0.40357031  0.84664123  0.52825567     0.00500
C3734       C  0.41941737  0.85837251  0.51231292    -0.07900
C3735       C  0.42688075  0.88452372  0.51626127     0.62500
H3736       H  0.44040269  0.85436701  0.48029576     0.13100
H3737       H  0.38535623  0.81391564  0.53691107     0.13200
C3738       C  0.39999725  0.78254855  0.50241043     0.62700
F3739       F  0.44271440  0.89242225  0.49882266    -0.22500
F3740       F  0.43806052  0.88692129  0.53844432    -0.19800
F3741       F  0.40694366  0.89932714  0.51553901    -0.19500
F3742       F  0.42039277  0.76833047  0.50171553    -0.19500
F3743       F  0.38651579  0.77924463  0.48165317    -0.19900
F3744       F  0.38616697  0.77469912  0.52150520    -0.22500
C3745       C  0.28458666  0.94592543  0.52074693    -0.05400
C3746       C  0.29791692  0.96357057  0.50809268     0.00600
C3747       C  0.32174376  0.96901595  0.51626947    -0.08000
C3748       C  0.33150049  0.95547570  0.53532721    -0.05400
C3749       C  0.31870475  0.93680297  0.54626851     0.00500
C3750       C  0.29462922  0.93228527  0.53955777    -0.07900
C3751       C  0.27980010  0.91294876  0.55199152     0.62500
H3752       H  0.26617994  0.94229258  0.51543612     0.13100
H3753       H  0.34986542  0.95850127  0.54124161     0.13200
C3754       C  0.33768414  0.98785174  0.50460455     0.62700
F3755       F  0.25719029  0.91042451  0.54168698    -0.22500
F3756       F  0.27689865  0.91901805  0.57594854    -0.19800
F3757       F  0.29123499  0.89086629  0.55050484    -0.19500
F3758       F  0.32661698  0.01016891  0.50531982    -0.19500
F3759       F  0.34225660  0.98103155  0.48112764    -0.19900
F3760       F  0.35963953  0.99028783  0.51629469    -0.22500
C3761       C  0.29968528  0.05349550  0.40900680    -0.05400
C3762       C  0.32367044  0.05815260  0.41514011     0.00600
C3763       C  0.33472990  0.04499366  0.43379942    -0.08000
C3764       C  0.32139381  0.02697480  0.44543753    -0.05400
C3765       C  0.29729490  0.02156298  0.43930793     0.00500
C3766       C  0.28607903  0.03557663  0.42080501    -0.07900
C3767       C  0.25985601  0.03263492  0.41371998     0.62500
H3768       H  0.29177571  0.06411744  0.39469193     0.13100
H3769       H  0.33016373  0.01671379  0.45930461     0.13200
C3770       C  0.36062545  0.04999710  0.44131752     0.62700
F3771       F  0.25242612  0.05020302  0.39763840    -0.22500
F3772       F  0.24572657  0.03469494  0.43396626    -0.19800
F3773       F  0.25626014  0.01043990  0.40278623    -0.19500
F3774       F  0.36343836  0.07418502  0.44701833    -0.19500
F3775       F  0.37593965  0.04414391  0.42269869    -0.19900
F3776       F  0.36736329  0.03664991  0.46125000    -0.22500
C3777       C  0.23926367  0.93007293  0.44570703    -0.05400
C3778       C  0.23655096  0.95531791  0.44529433     0.00600
C3779       C  0.21533558  0.96521074  0.43516616    -0.08000
C3780       C  0.19990692  0.94995062  0.42192134    -0.05400
C3781       C  0.20303545  0.92479690  0.42175792     0.00500
C3782       C  0.22218299  0.91453794  0.43510574    -0.07900
C3783       C  0.22399905  0.88744021  0.43904807     0.62500
H3784       H  0.25494585  0.92249677  0.45449062     0.13100
H3785       H  0.18429971  0.95753763  0.41295765     0.13200
C3786       C  0.20673784  0.99070016  0.44004576     0.62700
F3787       F  0.24167665  0.88180132  0.45573413    -0.22500
F3788       F  0.22947327  0.87578493  0.41778520    -0.19800
F3789       F  0.20235087  0.87869197  0.44759483    -0.19500
F3790       F  0.20815678  0.00419274  0.41924487    -0.19500
F3791       F  0.21968953  0.00198095  0.45820088    -0.19900
F3792       F  0.18297580  0.98995839  0.44732672    -0.22500
C3793       C  0.69649138  0.92012612  0.29852503    -0.05400
C3794       C  0.70491149  0.94090522  0.31081538     0.00600
C3795       C  0.69246518  0.94884975  0.33182360    -0.08000
C3796       C  0.67214525  0.93580329  0.33918100    -0.05400
C3797       C  0.66343730  0.91601379  0.32609422     0.00500
C3798       C  0.67556914  0.90791040  0.30543320    -0.07900
C3799       C  0.66644398  0.88647495  0.29082193     0.62500
H3800       H  0.70592129  0.91385067  0.28272966     0.13100
H3801       H  0.66247257  0.94107911  0.35521980     0.13200
C3802       C  0.69943142  0.97132656  0.34615522     0.62700
F3803       F  0.67948572  0.88323371  0.26990814    -0.22500
F3804       F  0.64268132  0.89003539  0.28434174    -0.19800
F3805       F  0.66817845  0.86562829  0.30430933    -0.19500
F3806       F  0.69549913  0.99169221  0.33234918    -0.19500
F3807       F  0.72334084  0.97016255  0.35305106    -0.19900
F3808       F  0.68596132  0.97377236  0.36691014    -0.22500
C3809       C  0.51864722  0.84887866  0.41900031    -0.05400
C3810       C  0.53382940  0.83202768  0.40809904     0.00600
C3811       C  0.52723853  0.80728977  0.40787222    -0.08000
C3812       C  0.50557642  0.80031133  0.41881062    -0.05400
C3813       C  0.48999687  0.81707600  0.42959685     0.00500
C3814       C  0.49665981  0.84200533  0.42959903    -0.07900
C3815       C  0.48090016  0.86159285  0.44026176     0.62500
H3816       H  0.52420653  0.86764257  0.41900778     0.13100
H3817       H  0.50054098  0.78141730  0.41885120     0.13200
C3818       C  0.54262923  0.78828284  0.39562152     0.62700
F3819       F  0.48863019  0.88447414  0.43382869    -0.22500
F3820       F  0.48167701  0.86012895  0.46507119    -0.19800
F3821       F  0.45746669  0.85905191  0.43213700    -0.19500
F3822       F  0.56533163  0.78789994  0.40582402    -0.19500
F3823       F  0.54446410  0.79340159  0.37140009    -0.19900
F3824       F  0.53288788  0.76534570  0.39772598    -0.22500
C3825       C  0.49720282  0.91992208  0.30667955    -0.05400
C3826       C  0.49886002  0.94499450  0.31016622     0.00600
C3827       C  0.51913680  0.95460006  0.32255187    -0.08000
C3828       C  0.53651914  0.93841671  0.33167617    -0.05400
C3829       C  0.53555978  0.91336910  0.32689095     0.00500
C3830       C  0.51542738  0.90399317  0.31397470    -0.07900
C3831       C  0.51332464  0.87756292  0.30669957     0.62500
H3832       H  0.48148989  0.91282183  0.29744495     0.13100
H3833       H  0.55181651  0.94541371  0.34165730     0.13200
C3834       C  0.52358528  0.98165710  0.32446175     0.62700
F3835       F  0.49419546  0.87348780  0.29111187    -0.22500
F3836       F  0.50969341  0.86352023  0.32686491    -0.19800
F3837       F  0.53398426  0.87030113  0.29502502    -0.19500
F3838       F  0.50634306  0.99234899  0.33865078    -0.19500
F3839       F  0.52291087  0.99183048  0.30176223    -0.19900
F3840       F  0.54582042  0.98685975  0.33460703    -0.22500
C3841       C  0.41734893  0.95928204  0.23813492    -0.05400
C3842       C  0.44168622  0.95449013  0.24329123     0.00600
C3843       C  0.45490489  0.93982617  0.22674914    -0.08000
C3844       C  0.44263353  0.92904220  0.20713980    -0.05400
C3845       C  0.41806176  0.93277200  0.20307767     0.00500
C3846       C  0.40537665  0.94883688  0.21821374    -0.07900
C3847       C  0.37923336  0.95491584  0.21325518     0.62500
H3848       H  0.40736471  0.97069096  0.25034356     0.13100
H3849       H  0.45201796  0.91693667  0.19508349     0.13200
C3850       C  0.48176580  0.93517686  0.22932746     0.62700
F3851       F  0.37106387  0.97310188  0.22825319    -0.22500
F3852       F  0.36499909  0.93476750  0.21676469    -0.19800
F3853       F  0.37664421  0.96263542  0.18973918    -0.19500
F3854       F  0.48588175  0.91879758  0.24760902    -0.19500
F3855       F  0.49386159  0.95653633  0.23419381    -0.19900
F3856       F  0.49138764  0.92564072  0.20842699    -0.22500
C3857       C  0.43053438  0.03082164  0.29899113    -0.05400
C3858       C  0.43888369  0.01145150  0.31303407     0.00600
C3859       C  0.43562495  0.01246733  0.33843602    -0.08000
C3860       C  0.42639854  0.03382286  0.34879247    -0.05400
C3861       C  0.41830149  0.05325905  0.33471654     0.00500
C3862       C  0.41957473  0.05134604  0.30925960    -0.07900
C3863       C  0.40876746  0.07032650  0.29270964     0.62500
H3864       H  0.43256720  0.02976469  0.27964444     0.13100
H3865       H  0.42424041  0.03510324  0.36811631     0.13200
C3866       C  0.43951843  0.99054209  0.35445991     0.62700
F3867       F  0.40581008  0.06154581  0.26952909    -0.22500
F3868       F  0.42373395  0.09021693  0.29164587    -0.19800
F3869       F  0.38637614  0.07738130  0.30081080    -0.19500
F3870       F  0.46361386  0.98504571  0.35623792    -0.19500
F3871       F  0.42715757  0.97091479  0.34502801    -0.19900
F3872       F  0.43123962  0.99443136  0.37760184    -0.22500
C3873       C  0.41498349  0.72766327  0.39435322    -0.05400
C3874       C  0.40325727  0.71177072  0.41012161     0.00600
C3875       C  0.40177089  0.71798529  0.43481901    -0.08000
C3876       C  0.41330263  0.73922658  0.44302726    -0.05400
C3877       C  0.42516841  0.75518748  0.42734918     0.00500
C3878       C  0.42543600  0.74957932  0.40233141    -0.07900
C3879       C  0.43539986  0.76701638  0.38379245     0.62500
H3880       H  0.41522998  0.72299425  0.37540552     0.13100
H3881       H  0.41301832  0.74354466  0.46200611     0.13200
C3882       C  0.38735042  0.70284774  0.45237339     0.62700
F3883       F  0.42910914  0.76025557  0.36056270    -0.22500
F3884       F  0.46021571  0.76764148  0.38527882    -0.19800
F3885       F  0.42631835  0.78992870  0.38771243    -0.19500
F3886       F  0.39892197  0.68124269  0.45660645    -0.19500
F3887       F  0.36465538  0.69822982  0.44309305    -0.19900
F3888       F  0.38454639  0.71453270  0.47424912    -0.22500
C3889       C  0.24387170  0.81046645  0.32905426    -0.05400
C3890       C  0.24727425  0.81686636  0.30476347     0.00600
C3891       C  0.23099046  0.83352911  0.29392008    -0.08000
C3892       C  0.21303527  0.84405766  0.30821396    -0.05400
C3893       C  0.20981851  0.83748114  0.33222479     0.00500
C3894       C  0.22486441  0.81988924  0.34273216    -0.07900
C3895       C  0.21988435  0.81014804  0.36774128     0.62500
H3896       H  0.25590099  0.79747585  0.33720081     0.13100
H3897       H  0.20085529  0.85727477  0.30063980     0.13200
C3898       C  0.23145602  0.83964709  0.26729617     0.62700
F3899       F  0.23688462  0.79336532  0.37485702    -0.22500
F3900       F  0.19759832  0.79897597  0.36777727    -0.19800
F3901       F  0.21994969  0.82872677  0.38442692    -0.19500
F3902       F  0.23208809  0.81867033  0.25371224    -0.19500
F3903       F  0.25130820  0.85379039  0.26236691    -0.19900
F3904       F  0.21122309  0.85238828  0.26025026    -0.22500
C3905       C  0.29752683  0.70857951  0.31510678    -0.05400
C3906       C  0.32254514  0.70615256  0.31755322     0.00600
C3907       C  0.33781628  0.72364474  0.30687870    -0.08000
C3908       C  0.32750387  0.74442622  0.29669983    -0.05400
C3909       C  0.30251391  0.74780874  0.29592144     0.00500
C3910       C  0.28719066  0.72891340  0.30388789    -0.07900
C3911       C  0.26014782  0.72979054  0.29998705     0.62500
H3912       H  0.28609109  0.69477138  0.32277437     0.13100
H3913       H  0.33909435  0.75862802  0.29000770     0.13200
C3914       C  0.36498914  0.72088502  0.30660495     0.62700
F3915       F  0.24954353  0.70751712  0.30393555    -0.22500
F3916       F  0.25511484  0.73639674  0.27648787    -0.19800
F3917       F  0.24989440  0.74623256  0.31559829    -0.19500
F3918       F  0.37119091  0.69711190  0.30217830    -0.19500
F3919       F  0.37466218  0.72810212  0.32844456    -0.19900
F3920       F  0.37517253  0.73487265  0.28872498    -0.22500
C3921       C  0.33128600  0.81868572  0.20293967    -0.05400
C3922       C  0.32966685  0.84392809  0.20249029     0.00600
C3923       C  0.31539845  0.85591481  0.21974157    -0.08000
C3924       C  0.30583842  0.84240496  0.23880503    -0.05400
C3925       C  0.30768976  0.81703511  0.23969353     0.00500
C3926       C  0.31942079  0.80484346  0.22045995    -0.07900
C3927       C  0.31846043  0.77758823  0.21729136     0.62500
H3928       H  0.34162554  0.80985031  0.18900549     0.13100
H3929       H  0.29635737  0.85172521  0.25297615     0.13200
C3930       C  0.30867352  0.88235096  0.21696533     0.62700
F3931       F  0.32642866  0.77056614  0.19475702    -0.22500
F3932       F  0.29498950  0.76955015  0.21951995    -0.19800
F3933       F  0.33287896  0.76653188  0.23430170    -0.19500
F3934       F  0.29653471  0.88533085  0.19537841    -0.19500
F3935       F  0.32889979  0.89684294  0.21712296    -0.19900
F3936       F  0.29380142  0.89016317  0.23529715    -0.22500
C3937       C  0.41642761  0.08737210  0.05741394    -0.05400
C3938       C  0.40418440  0.07285936  0.07394855     0.00600
C3939       C  0.41346695  0.04986966  0.07982093    -0.08000
C3940       C  0.43490209  0.04219473  0.06885604    -0.05400
C3941       C  0.44791192  0.05707486  0.05297127     0.00500
C3942       C  0.43833075  0.08019328  0.04701176    -0.07900
C3943       C  0.45139217  0.09794177  0.03077794     0.62500
H3944       H  0.40910283  0.10506967  0.05363829     0.13100
H3945       H  0.44182111  0.02442652  0.07297903     0.13200
C3946       C  0.40150034  0.03411267  0.09859294     0.62700
F3947       F  0.44066969  0.12047557  0.03085186    -0.22500
F3948       F  0.45122323  0.08965793  0.00725660    -0.19800
F3949       F  0.47484907  0.10087961  0.03874071    -0.19500
F3950       F  0.37758021  0.03050458  0.09267272    -0.19500
F3951       F  0.40301106  0.04530134  0.12083736    -0.19900
F3952       F  0.41233707  0.01169438  0.10037495    -0.22500
C3953       C  0.55022444  0.08731785  0.94700669    -0.05400
C3954       C  0.56222604  0.06919275  0.96015271     0.00600
C3955       C  0.58634951  0.06355712  0.95432337    -0.08000
C3956       C  0.59632386  0.07356289  0.93350262    -0.05400
C3957       C  0.58381708  0.09052014  0.91960502     0.00500
C3958       C  0.56108607  0.09881801  0.92726770    -0.07900
C3959       C  0.54897086  0.12027717  0.91533551     0.62500
H3960       H  0.53198648  0.09199967  0.95184141     0.13100
H3961       H  0.61429367  0.06844919  0.92805707     0.13200
C3962       C  0.60194721  0.04775095  0.97026352     0.62700
F3963       F  0.54354179  0.11518274  0.89157022    -0.22500
F3964       F  0.56424045  0.14003134  0.91629051    -0.19800
F3965       F  0.52781576  0.12648747  0.92676870    -0.19500
F3966       F  0.62614507  0.05189762  0.96616510    -0.19500
F3967       F  0.59719546  0.02363826  0.96571529    -0.19900
F3968       F  0.59758469  0.05287108  0.99424459    -0.22500
C3969       C  0.55756269  0.95532799  0.07805416    -0.05400
C3970       C  0.56524327  0.96211792  0.05487403     0.00600
C3971       C  0.58437752  0.94872773  0.04401897    -0.08000
C3972       C  0.59442251  0.92914507  0.05668697    -0.05400
C3973       C  0.58594996  0.92214920  0.07924852     0.00500
C3974       C  0.56723772  0.93531135  0.09020250    -0.07900
C3975       C  0.55713849  0.92778531  0.11439772     0.62500
H3976       H  0.54311910  0.96529698  0.08640285     0.13100
H3977       H  0.60898162  0.91877025  0.04900972     0.13200
C3978       C  0.59408256  0.95416373  0.01904231     0.62700
F3979       F  0.53823664  0.94235206  0.12145996    -0.22500
F3980       F  0.57491038  0.92916670  0.13186146    -0.19800
F3981       F  0.54868008  0.90431410  0.11299962    -0.19500
F3982       F  0.60183981  0.97789711  0.01800599    -0.19500
F3983       F  0.57638894  0.95005356  0.00188612    -0.19900
F3984       F  0.61344588  0.93964646  0.01320027    -0.22500
C3985       C  0.45771114  0.92887914  0.05180317    -0.05400
C3986       C  0.44606135  0.94571942  0.03689898     0.00600
C3987       C  0.42147483  0.95094894  0.04072802    -0.08000
C3988       C  0.40989671  0.94049605  0.06063620    -0.05400
C3989       C  0.42223568  0.92521128  0.07656646     0.00500
C3990       C  0.44615340  0.91837510  0.07159261    -0.07900
C3991       C  0.45949295  0.90044234  0.08741616     0.62500
H3992       H  0.47658455  0.92525653  0.04872275     0.13100
H3993       H  0.39123016  0.94458405  0.06429233     0.13200
C3994       C  0.40797099  0.96852893  0.02479556     0.62700
F3995       F  0.48200927  0.89509501  0.07840334    -0.22500
F3996       F  0.44670523  0.87905103  0.08888827    -0.19800
F3997       F  0.46241674  0.90994529  0.11028419    -0.19500
F3998       F  0.41113330  0.96240848  0.00087593    -0.19500
F3999       F  0.41651618  0.99169548  0.02875364    -0.19900
F4000       F  0.38351521  0.96821757  0.02938313    -0.22500
C4001       C  0.42706300  0.05846642  0.95031187    -0.05400
C4002       C  0.44703767  0.04810396  0.93898689     0.00600
C4003       C  0.45499416  0.05751023  0.91675555    -0.08000
C4004       C  0.44154640  0.07597276  0.90568987    -0.05400
C4005       C  0.42187417  0.08665221  0.91729656     0.00500
C4006       C  0.41482866  0.07824711  0.94025119    -0.07900
C4007       C  0.39534536  0.09091206  0.95454436     0.62500
H4008       H  0.42233115  0.05213062  0.96810175     0.13100
H4009       H  0.44685752  0.08295439  0.88832738     0.13200
C4010       C  0.47827000  0.04883049  0.90554446     0.62700
F4011       F  0.39195398  0.08038225  0.97684354    -0.22500
F4012       F  0.37376162  0.09001385  0.94212878    -0.19800
F4013       F  0.40176706  0.11478419  0.95829373    -0.19500
F4014       F  0.47718088  0.02412422  0.90197961    -0.19500
F4015       F  0.49744851  0.05417938  0.92065753    -0.19900
F4016       F  0.48253157  0.05974479  0.88360210    -0.22500
C4017       C  0.07816254  0.80843488  0.17987765    -0.05400
C4018       C  0.06443278  0.81822638  0.16101137     0.00600
C4019       C  0.04203945  0.80758056  0.15481616    -0.08000
C4020       C  0.03288411  0.78913759  0.16953896    -0.05400
C4021       C  0.04561740  0.78092140  0.18975455     0.00500
C4022       C  0.06906130  0.78978692  0.19441255    -0.07900
C4023       C  0.08394358  0.77997159  0.21511560     0.62500
H4024       H  0.09568790  0.81619152  0.18369797     0.13100
H4025       H  0.01489410  0.78219285  0.16639693     0.13200
C4026       C  0.02780479  0.81585865  0.13297125     0.62700
F4027       F  0.10720989  0.78896041  0.21493546    -0.22500
F4028       F  0.08509478  0.75507744  0.21336214    -0.19800
F4029       F  0.07353954  0.78614896  0.23679374    -0.19500
F4030       F  0.00712451  0.80224408  0.12958100    -0.19500
F4031       F  0.04175123  0.81358906  0.11257390    -0.19900
F4032       F  0.02110290  0.83970761  0.13568914    -0.22500
C4033       C  0.91284155  0.70465742  0.31543412    -0.05400
C4034       C  0.93622380  0.71093237  0.32335824     0.00600
C4035       C  0.94637239  0.69811749  0.34324216    -0.08000
C4036       C  0.93328298  0.67871952  0.35305019    -0.05400
C4037       C  0.91092037  0.67167342  0.34367398     0.00500
C4038       C  0.90030495  0.68485353  0.32476791    -0.07900
C4039       C  0.87616148  0.67748845  0.31396050     0.62500
H4040       H  0.90474624  0.71460269  0.30077399     0.13100
H4041       H  0.94054026  0.66846511  0.36796816     0.13200
C4042       C  0.97095457  0.70397569  0.35395007     0.62700
F4043       F  0.86931865  0.69245790  0.29524296    -0.22500
F4044       F  0.85852306  0.67842158  0.33135469    -0.19800
F4045       F  0.87751955  0.65422844  0.30496386    -0.19500
F4046       F  0.97245669  0.72831968  0.35943745    -0.19500
F4047       F  0.98876088  0.69782482  0.33781790    -0.19900
F4048       F  0.97524920  0.69133176  0.37500577    -0.22500
C4049       C  0.92649847  0.70742071  0.18433770    -0.05400
C4050       C  0.94197054  0.69445745  0.19960584     0.00600
C4051       C  0.93935064  0.66917788  0.20172872    -0.08000
C4052       C  0.92081179  0.65764212  0.18869325    -0.05400
C4053       C  0.90501647  0.67071161  0.17388439     0.00500
C4054       C  0.90809816  0.69591105  0.17114893    -0.07900
C4055       C  0.89207742  0.71050328  0.15440496     0.62500
H4056       H  0.92859049  0.72685765  0.18335007     0.13100
H4057       H  0.91845710  0.63825678  0.18987741     0.13200
C4058       C  0.95567053  0.65469440  0.21813261     0.62700
F4059       F  0.89952382  0.73431353  0.15296650    -0.22500
F4060       F  0.86870437  0.71028749  0.16268611    -0.19800
F4061       F  0.89253314  0.70080131  0.13144329    -0.19500
F4062       F  0.95381681  0.66310395  0.24151969    -0.19500
F4063       F  0.97921332  0.65703063  0.21060252    -0.19900
F4064       F  0.94976114  0.63038406  0.21795123    -0.22500
C4065       C  0.05297331  0.79706499  0.33053438    -0.05400
C4066       C  0.04402535  0.80725517  0.30904738     0.00600
C4067       C  0.05610954  0.82776132  0.29914258    -0.08000
C4068       C  0.07638667  0.83699948  0.31131946    -0.05400
C4069       C  0.08449375  0.82708125  0.33295789     0.00500
C4070       C  0.07298969  0.80666781  0.34268966    -0.07900
C4071       C  0.08151107  0.79548540  0.36614747     0.62500
H4072       H  0.04404291  0.78145704  0.33805555     0.13100
H4073       H  0.08570624  0.85278289  0.30461431     0.13200
C4074       C  0.04785910  0.84050110  0.27630353     0.62700
F4075       F  0.06990855  0.77384988  0.37079812    -0.22500
F4076       F  0.07702614  0.81120042  0.38497087    -0.19800
F4077       F  0.10591741  0.79090897  0.36516324    -0.19500
F4078       F  0.02457630  0.84867892  0.27918765    -0.19500
F4079       F  0.04896017  0.82495977  0.25681863    -0.19900
F4080       F  0.06210005  0.86032772  0.27099669    -0.22500
C4081       C  0.07103176  0.69403758  0.29637380    -0.05400
C4082       C  0.04791113  0.68629037  0.28963012     0.00600
C4083       C  0.03775557  0.66567075  0.30054247    -0.08000
C4084       C  0.05039398  0.65440789  0.31936534    -0.05400
C4085       C  0.07318200  0.66263234  0.32670535     0.00500
C4086       C  0.08420615  0.68210636  0.31445237    -0.07900
C4087       C  0.10964751  0.69025094  0.32056558     0.62500
H4088       H  0.07821737  0.71019152  0.28810645     0.13100
H4089       H  0.04269708  0.63895978  0.32844820     0.13200
C4090       C  0.01373489  0.65563944  0.29197230     0.62700
F4091       F  0.11689149  0.70945780  0.30643573    -0.22500
F4092       F  0.12541792  0.67136360  0.31681900    -0.19800
F4093       F  0.11111493  0.69747566  0.34435699    -0.19500
F4094       F  0.01565980  0.64890308  0.26806844    -0.19500
F4095       F  0.99589942  0.67285241  0.29406878    -0.19900
F4096       F  0.00683123  0.63559420  0.30506725    -0.22500
C4097       C  0.81242325  0.69477442  0.46096284    -0.05400
C4098       C  0.79770291  0.71018459  0.44729064     0.00600
C4099       C  0.79521177  0.70637621  0.42227102    -0.08000
C4100       C  0.80639953  0.68604696  0.41197842    -0.05400
C4101       C  0.82013505  0.66998923  0.42597764     0.00500
C4102       C  0.82395464  0.67480034  0.45070835    -0.07900
C4103       C  0.84052230  0.65932090  0.46607063     0.62500
H4104       H  0.81405397  0.69809704  0.48014156     0.13100
H4105       H  0.80464060  0.68251582  0.39286054     0.13200
C4106       C  0.78082275  0.72362943  0.40672074     0.62700
F4107       F  0.84017878  0.66623348  0.49005055    -0.22500
F4108       F  0.86385949  0.66149903  0.45790470    -0.19800
F4109       F  0.83360012  0.63536526  0.46484911    -0.19500
F4110       F  0.79015105  0.74668322  0.40918578    -0.19500
F4111       F  0.75702451  0.72382068  0.41365466    -0.19900
F4112       F  0.78166903  0.71727279  0.38262544    -0.22500
C4113       C  0.69228326  0.83255737  0.45038511    -0.05400
C4114       C  0.69970482  0.81043038  0.44055590     0.00600
C4115       C  0.68872258  0.80161365  0.41930111    -0.08000
C4116       C  0.66889060  0.81398740  0.40981104    -0.05400
C4117       C  0.66081956  0.83566853  0.42003563     0.00500
C4118       C  0.67339666  0.84587483  0.43988275    -0.07900
C4119       C  0.66689700  0.87055311  0.44980805     0.62500
H4120       H  0.70076224  0.83881993  0.46687942     0.13100
H4121       H  0.65986813  0.80722990  0.39379999     0.13200
C4122       C  0.69838614  0.77941507  0.40657955     0.62700
F4123       F  0.64343122  0.87040593  0.45784539    -0.22500
F4124       F  0.66924104  0.88773716  0.43197193    -0.19800
F4125       F  0.68171304  0.87721545  0.46885036    -0.19500
F4126       F  0.69609047  0.75929809  0.42105111    -0.19500
F4127       F  0.72243811  0.78301959  0.40142479    -0.19900
F4128       F  0.68632210  0.77490808  0.38514924    -0.22500
C4129       C  0.67990260  0.80766818  0.57119200    -0.05400
C4130       C  0.66966216  0.79283900  0.55313055     0.00600
C4131       C  0.64522622  0.79664182  0.54654070    -0.08000
C4132       C  0.63333337  0.81705853  0.55584003    -0.05400
C4133       C  0.64450111  0.83291857  0.57230586     0.00500
C4134       C  0.66745541  0.82695933  0.58161072    -0.07900
C4135       C  0.67957795  0.83963734  0.60272844     0.62500
H4136       H  0.69819147  0.80451831  0.57723679     0.13100
H4137       H  0.61533532  0.82127718  0.54960854     0.13200
C4138       C  0.63144706  0.77946458  0.53010479     0.62700
F4139       F  0.68684210  0.82251638  0.61931859    -0.22500
F4140       F  0.66462413  0.85557691  0.61452251    -0.19800
F4141       F  0.69966798  0.85196874  0.59476572    -0.19500
F4142       F  0.63540197  0.75587657  0.53720755    -0.19500
F4143       F  0.63866835  0.78240901  0.50653255    -0.19900
F4144       F  0.60690724  0.78356837  0.53104941    -0.22500
C4145       C  0.66073333  0.68437613  0.45485605    -0.05400
C4146       C  0.68580545  0.68438452  0.45740851     0.00600
C4147       C  0.69994686  0.67015025  0.44143673    -0.08000
C4148       C  0.68826578  0.65645258  0.42351481    -0.05400
C4149       C  0.66325898  0.65673925  0.42082846     0.00500
C4150       C  0.64908951  0.67066941  0.43684835    -0.07900
C4151       C  0.62188026  0.67174612  0.43451766     0.62500
H4152       H  0.65034118  0.69552867  0.46697783     0.13100
H4153       H  0.69858495  0.64548563  0.41115403     0.13200
C4154       C  0.72728919  0.67028841  0.44225006     0.62700
F4155       F  0.61196805  0.68784141  0.45077413    -0.22500
F4156       F  0.61191692  0.64933029  0.43888204    -0.19800
F4157       F  0.61560331  0.67907566  0.41157689    -0.19500
F4158       F  0.73534044  0.65928118  0.46307261    -0.19500
F4159       F  0.73554846  0.69377430  0.44162873    -0.19900
F4160       F  0.73720615  0.65816900  0.42286373    -0.22500
C4161       C  0.78631571  0.67642740  0.55939554    -0.05400
C4162       C  0.78211330  0.70095436  0.56466356     0.00600
C4163       C  0.79872397  0.71364637  0.57974549    -0.08000
C4164       C  0.81917400  0.70138337  0.58820340    -0.05400
C4165       C  0.82372860  0.67738671  0.58179309     0.00500
C4166       C  0.80709318  0.66451248  0.56730565    -0.07900
C4167       C  0.81165127  0.63856696  0.55960995     0.62500
H4168       H  0.77357771  0.66681024  0.54805059     0.13100
H4169       H  0.83200365  0.71043556  0.59991609     0.13200
C4170       C  0.79575433  0.74015557  0.58621217     0.62700
F4171       F  0.81190387  0.62362018  0.57946639    -0.22500
F4172       F  0.83357185  0.63710632  0.54809633    -0.19800
F4173       F  0.79410916  0.63014008  0.54385980    -0.19500
F4174       F  0.77415104  0.74357224  0.59793056    -0.19500
F4175       F  0.79631156  0.75391116  0.56554337    -0.19900
F4176       F  0.81392921  0.74842548  0.60128983    -0.22500
C4177       C  0.15577846  0.06041615  0.82087401    -0.05400
C4178       C  0.16332591  0.08368917  0.82746302     0.00600
C4179       C  0.18177039  0.09532054  0.81432001    -0.08000
C4180       C  0.19363608  0.08219929  0.79621584    -0.05400
C4181       C  0.18683966  0.05846418  0.79052862     0.00500
C4182       C  0.16711607  0.04764033  0.80232117    -0.07900
C4183       C  0.15837891  0.02254053  0.79535754     0.62500
H4184       H  0.14091175  0.05234851  0.83049472     0.13100
H4185       H  0.20906660  0.08990234  0.78719968     0.13200
C4186       C  0.18911727  0.12119981  0.81973498     0.62700
F4187       F  0.13795119  0.01598583  0.80790103    -0.22500
F4188       F  0.17602132  0.00566835  0.80011120    -0.19800
F4189       F  0.15292937  0.02202558  0.77103517    -0.19500
F4190       F  0.16958748  0.13631724  0.81679742    -0.19500
F4191       F  0.20713395  0.12909582  0.80453731    -0.19900
F4192       F  0.19744497  0.12298927  0.84316634    -0.22500
C4193       C  0.20619730  0.94978992  0.67211137    -0.05400
C4194       C  0.19299288  0.96231260  0.68958246     0.00600
C4195       C  0.16802885  0.95827398  0.69178003    -0.08000
C4196       C  0.15722141  0.94054297  0.67709133    -0.05400
C4197       C  0.17082149  0.92690309  0.66077416     0.00500
C4198       C  0.19549936  0.93201738  0.65753057    -0.07900
C4199       C  0.21045838  0.91856002  0.63904302     0.62500
H4200       H  0.22532405  0.95327302  0.67082235     0.13100
H4201       H  0.13818511  0.93668559  0.67862956     0.13200
C4202       C  0.15325484  0.97194599  0.71016433     0.62700
F4203       F  0.23355508  0.92782662  0.63754935    -0.22500
F4204       F  0.19985561  0.92039833  0.61655451    -0.19800
F4205       F  0.21215237  0.89446657  0.64520222    -0.19500
F4206       F  0.15445408  0.99642159  0.70543215    -0.19500
F4207       F  0.16212894  0.96768996  0.73306704    -0.19900
F4208       F  0.12931547  0.96501184  0.70956839    -0.22500
C4209       C  0.30069900  0.08602963  0.66799214    -0.05400
C4210       C  0.31711464  0.07099891  0.65594630     0.00600
C4211       C  0.31412972  0.04565035  0.65656040    -0.08000
C4212       C  0.29612488  0.03609280  0.67126979    -0.05400
C4213       C  0.28121034  0.05103287  0.68510975     0.00500
C4214       C  0.28256296  0.07631727  0.68269216    -0.07900
C4215       C  0.26547989  0.09266293  0.69625001     0.62500
H4216       H  0.30279239  0.10541634  0.66645560     0.13100
H4217       H  0.29452969  0.01669456  0.67334087     0.13200
C4218       C  0.33014347  0.02877099  0.64223132     0.62700
F4219       F  0.27017794  0.11681437  0.69195777    -0.22500
F4220       F  0.26753207  0.08870473  0.72074835    -0.19800
F4221       F  0.24212488  0.08775849  0.68898019    -0.19500
F4222       F  0.35356571  0.03034527  0.65051241    -0.19500
F4223       F  0.32941854  0.03495833  0.61815610    -0.19900
F4224       F  0.32282883  0.00493452  0.64417226    -0.22500
C4225       C  0.33172477  0.95303361  0.70590738    -0.05400
C4226       C  0.30890594  0.94325509  0.71135578     0.00600
C4227       C  0.29947134  0.92436596  0.69641305    -0.08000
C4228       C  0.31290379  0.91678953  0.67648412    -0.05400
C4229       C  0.33483440  0.92750803  0.67061858     0.00500
C4230       C  0.34476894  0.94564354  0.68557807    -0.07900
C4231       C  0.36873253  0.95739886  0.67972190     0.62500
H4232       H  0.33894125  0.96732642  0.71719305     0.13100
H4233       H  0.30617251  0.90261768  0.66473404     0.13200
C4234       C  0.27495904  0.91276965  0.70026549     0.62700
F4235       F  0.36780352  0.96731896  0.65692764    -0.22500
F4236       F  0.38678120  0.94030206  0.68051724    -0.19800
F4237       F  0.37457408  0.97564968  0.69585880    -0.19500
F4238       F  0.25711146  0.92986017  0.69747862    -0.19500
F4239       F  0.27390798  0.90284840  0.72303887    -0.19900
F4240       F  0.27028296  0.89441351  0.68387493    -0.22500
C4241       C  0.34381132  0.07177482  0.81539333    -0.05400
C4242       C  0.33132071  0.08738010  0.83078479     0.00600
C4243       C  0.30699212  0.08264744  0.83634729    -0.08000
C4244       C  0.29556569  0.06290472  0.82521630    -0.05400
C4245       C  0.30774367  0.04758157  0.80914275     0.00500
C4246       C  0.33257772  0.05159663  0.80468684    -0.07900
C4247       C  0.34757848  0.03418852  0.78983969     0.62500
H4248       H  0.36267415  0.07539676  0.81218460     0.13100
H4249       H  0.27663367  0.05979676  0.82847923     0.13200
C4250       C  0.29318297  0.09827525  0.85404702     0.62700
F4251       F  0.37193553  0.03899891  0.79212433    -0.22500
F4252       F  0.34165568  0.03594415  0.76571296    -0.19800
F4253       F  0.34364515  0.01080362  0.79761995    -0.19500
F4254       F  0.29031350  0.12121245  0.84479786    -0.19500
F4255       F  0.30554247  0.09974983  0.87567857    -0.19900
F4256       F  0.27054772  0.08896800  0.85868165    -0.22500
C4257       C  0.07341015  0.45484326  0.04147774    -0.05400
C4258       C  0.05207494  0.46393064  0.05161685     0.00600
C4259       C  0.04045958  0.45007499  0.06991085    -0.08000
C4260       C  0.05093378  0.42809421  0.07714966    -0.05400
C4261       C  0.07193699  0.41921454  0.06659158     0.00500
C4262       C  0.08313339  0.43249618  0.04808600    -0.07900
C4263       C  0.10527039  0.42406639  0.03460048     0.62500
H4264       H  0.08235319  0.46487622  0.02738968     0.13100
H4265       H  0.04310554  0.41770748  0.09162173     0.13200
C4266       C  0.01721176  0.45790993  0.08198608     0.62700
F4267       F  0.10044819  0.42431342  0.01013250    -0.22500
F4268       F  0.11236006  0.40095379  0.04058853    -0.19800
F4269       F  0.12413343  0.43972136  0.03939199    -0.19500
F4270       F  0.99874805  0.45895896  0.06522889    -0.19500
F4271       F  0.02043032  0.48027451  0.09273957    -0.19900
F4272       F  0.01007216  0.44193824  0.09970229    -0.22500
C4273       C  0.04774485  0.58821486  0.93481250    -0.05400
C4274       C  0.05980077  0.57214388  0.95040506     0.00600
C4275       C  0.08465315  0.56755932  0.94659988    -0.08000
C4276       C  0.09588850  0.57780196  0.92644032    -0.05400
C4277       C  0.08342914  0.59275625  0.91038344     0.00500
C4278       C  0.05925062  0.59885018  0.91498614    -0.07900
C4279       C  0.04581610  0.61663342  0.89909622     0.62500
H4280       H  0.02885108  0.59179426  0.93769004     0.13100
H4281       H  0.11469929  0.57421817  0.92296804     0.13200
C4282       C  0.09953592  0.55193236  0.96339501     0.62700
F4283       F  0.04317480  0.60715353  0.87618479    -0.22500
F4284       F  0.05847066  0.63813767  0.89781976    -0.19800
F4285       F  0.02315321  0.62171655  0.90792026    -0.19500
F4286       F  0.09464594  0.52783003  0.95889255    -0.19500
F4287       F  0.09436924  0.55738223  0.98712727    -0.19900
F4288       F  0.12394526  0.55566869  0.96019045    -0.22500
C4289       C  0.94042033  0.58986095  0.04212290    -0.05400
C4290       C  0.95882383  0.57726079  0.05420693     0.00600
C4291       C  0.95748077  0.57469423  0.07954570    -0.08000
C4292       C  0.93588893  0.58075992  0.09109710    -0.05400
C4293       C  0.91693844  0.59196044  0.07862912     0.00500
C4294       C  0.92002737  0.59837207  0.05423513    -0.07900
C4295       C  0.90265204  0.61525954  0.04150455     0.62500
H4296       H  0.94185403  0.59276113  0.02293408     0.13100
H4297       H  0.93406075  0.57776493  0.11026585     0.13200
C4298       C  0.97922519  0.56781808  0.09467801     0.62700
F4299       F  0.90976145  0.62009173  0.01817627    -0.22500
F4300       F  0.90173799  0.63696088  0.05387915    -0.19800
F4301       F  0.87988781  0.60527506  0.04050112    -0.19500
F4302       F  0.99983067  0.57795278  0.08511233    -0.19500
F4303       F  0.98175909  0.54305163  0.09550552    -0.19900
F4304       F  0.97704141  0.57632558  0.11802695    -0.22500
C4305       C  0.04396334  0.45770908  0.92375283    -0.05400
C4306       C  0.03069469  0.44874602  0.94318702     0.00600
C4307       C  0.03452417  0.42487243  0.95125842    -0.08000
C4308       C  0.05291259  0.41123824  0.94048537    -0.05400
C4309       C  0.06759716  0.42115797  0.92255047     0.00500
C4310       C  0.06258145  0.44438041  0.91332418    -0.07900
C4311       C  0.07722822  0.45532216  0.89306344     0.62500
H4312       H  0.04078748  0.47612581  0.91804038     0.13100
H4313       H  0.05668171  0.39309597  0.94664516     0.13200
C4314       C  0.02035237  0.41453092  0.97207183     0.62700
F4315       F  0.10089000  0.45812080  0.90030623    -0.22500
F4316       F  0.06862010  0.47777049  0.88637079    -0.19800
F4317       F  0.07632722  0.44046137  0.87304221    -0.19500
F4318       F  0.99599076  0.41637445  0.96729768    -0.19500
F4319       F  0.02576909  0.42716621  0.99294524    -0.19900
F4320       F  0.02558924  0.39039674  0.97582254    -0.22500
C4321       C  0.91909897  0.45064406  0.03393556    -0.05400
C4322       C  0.93053867  0.47194214  0.04144463     0.00600
C4323       C  0.92362691  0.48211907  0.06388097    -0.08000
C4324       C  0.91134204  0.46747476  0.08037650    -0.05400
C4325       C  0.90446730  0.44360234  0.07471280     0.00500
C4326       C  0.90344296  0.43811838  0.04943484    -0.07900
C4327       C  0.88342773  0.42405685  0.03689152     0.62500
H4328       H  0.92117017  0.44456400  0.01549599     0.13100
H4329       H  0.90759857  0.47465181  0.09809173     0.13200
C4330       C  0.92939178  0.50801912  0.07094206     0.62700
F4331       F  0.87360019  0.43814964  0.01882035    -0.22500
F4332       F  0.86480411  0.41827297  0.05213658    -0.19800
F4333       F  0.89254486  0.40338677  0.02633747    -0.19500
F4334       F  0.92787407  0.52305528  0.05113833    -0.19500
F4335       F  0.95226165  0.50912678  0.08065711    -0.19900
F4336       F  0.91336545  0.51656017  0.08792683    -0.22500
C4337       C  0.19277396  0.80597513  0.07975902    -0.05400
C4338       C  0.18586020  0.79641280  0.05716230     0.00600
C4339       C  0.16444774  0.80539757  0.04584214    -0.08000
C4340       C  0.15101299  0.82308998  0.05786757    -0.05400
C4341       C  0.15815958  0.83235625  0.08016094     0.00500
C4342       C  0.17937276  0.82404120  0.09133798    -0.07900
C4343       C  0.18777624  0.83450732  0.11526560     0.62500
H4344       H  0.20912351  0.79956288  0.08820667     0.13100
H4345       H  0.13456985  0.83003380  0.05000650     0.13200
C4346       C  0.15564339  0.79733921  0.02101441     0.62700
F4347       F  0.20918626  0.82434171  0.12293427    -0.22500
F4348       F  0.17061107  0.83034639  0.13267490    -0.19800
F4349       F  0.19134426  0.85912725  0.11306628    -0.19500
F4350       F  0.15173798  0.77265952  0.02073508    -0.19500
F4351       F  0.17239247  0.80352039  0.00379380    -0.19900
F4352       F  0.13417291  0.80821403  0.01454110    -0.22500
C4353       C  0.20073034  0.67277628  0.95031427    -0.05400
C4354       C  0.19497631  0.69737903  0.95324782     0.00600
C4355       C  0.18046891  0.70894170  0.93537003    -0.08000
C4356       C  0.17303491  0.69547902  0.91523185    -0.05400
C4357       C  0.17890226  0.67114600  0.91251924     0.00500
C4358       C  0.19279492  0.65936268  0.93027776    -0.07900
C4359       C  0.19924708  0.63282287  0.92799015     0.62500
H4360       H  0.21171470  0.66404054  0.96385024     0.13100
H4361       H  0.16181705  0.70362554  0.90149625     0.13200
C4362       C  0.17276603  0.73527673  0.93684660     0.62700
F4363       F  0.21451463  0.62542589  0.94630692    -0.22500
F4364       F  0.21064912  0.62879425  0.90630298    -0.19800
F4365       F  0.17866454  0.61881611  0.92894773    -0.19500
F4366       F  0.19276859  0.75014415  0.93652023    -0.19500
F4367       F  0.15981834  0.73911994  0.95768277    -0.19900
F4368       F  0.15817813  0.74187282  0.91767888    -0.22500
C4369       C  0.29019103  0.70435960  0.92167031    -0.05400
C4370       C  0.30438879  0.71577395  0.93935683     0.00600
C4371       C  0.32856248  0.70849247  0.94271809    -0.08000
C4372       C  0.33745353  0.68939942  0.92854715    -0.05400
C4373       C  0.32272936  0.67701090  0.91192165     0.00500
C4374       C  0.29884919  0.68487355  0.90800283    -0.07900
C4375       C  0.28229852  0.67215380  0.89015607     0.62500
H4376       H  0.27153663  0.70973246  0.91990229     0.13100
H4377       H  0.35594573  0.68366755  0.93089822     0.13200
C4378       C  0.34546146  0.71967978  0.96125719     0.62700
F4379       F  0.26032814  0.68369245  0.88805042    -0.22500
F4380       F  0.27812866  0.64876810  0.89772346    -0.19800
F4381       F  0.29269919  0.67160998  0.86763232    -0.19500
F4382       F  0.35344884  0.70196636  0.97683623    -0.19500
F4383       F  0.33492410  0.73777339  0.97472748    -0.19900
F4384       F  0.36507374  0.72950551  0.94961005    -0.22500
C4385       C  0.29845526  0.70313687  0.08593490    -0.05400
C4386       C  0.29592212  0.69830058  0.06118136     0.00600
C4387       C  0.31286157  0.68275527  0.04969480    -0.08000
C4388       C  0.33126103  0.67251973  0.06365605    -0.05400
C4389       C  0.33333816  0.67701757  0.08832114     0.00500
C4390       C  0.31676062  0.69248257  0.09983744    -0.07900
C4391       C  0.31826866  0.69749663  0.12666885     0.62500
H4392       H  0.28574471  0.71519285  0.09442526     0.13100
H4393       H  0.34406819  0.66028630  0.05554807     0.13200
C4394       C  0.31230566  0.67716135  0.02281751     0.62700
F4395       F  0.30226261  0.71526334  0.13366840    -0.22500
F4396       F  0.34121342  0.70513119  0.13276488    -0.19800
F4397       F  0.31290213  0.67673386  0.13928893    -0.19500
F4398       F  0.31333746  0.69839691  0.00984809    -0.19500
F4399       F  0.29153135  0.66458520  0.01698414    -0.19900
F4400       F  0.33157236  0.66306362  0.01576828    -0.22500
C4401       C  0.32765822  0.80089137  0.05436612    -0.05400
C4402       C  0.31193232  0.81328666  0.03895733     0.00600
C4403       C  0.30874543  0.83841881  0.04168935    -0.08000
C4404       C  0.32077333  0.85027646  0.06071551    -0.05400
C4405       C  0.33507961  0.83747317  0.07722505     0.00500
C4406       C  0.33921838  0.81251698  0.07370788    -0.07900
C4407       C  0.35496275  0.79799782  0.09073677     0.62500
H4408       H  0.32927810  0.78149700  0.05223925     0.13100
H4409       H  0.31854184  0.86953054  0.06335563     0.13200
C4410       C  0.29188289  0.85221638  0.02522509     0.62700
F4411       F  0.35864844  0.77473819  0.08230400    -0.22500
F4412       F  0.34407943  0.79643046  0.11296636    -0.19800
F4413       F  0.37719744  0.80895455  0.09338512    -0.19500
F4414       F  0.26864112  0.84367567  0.02781045    -0.19500
F4415       F  0.29892651  0.84912652  0.00158749    -0.19900
F4416       F  0.29196620  0.87670895  0.03034054    -0.22500
C4417       C  0.45377690  0.69909367  0.66304292    -0.05400
C4418       C  0.46288063  0.69182436  0.68543689     0.00600
C4419       C  0.45441981  0.67031715  0.69611211    -0.08000
C4420       C  0.43520750  0.65788742  0.68508028    -0.05400
C4421       C  0.42510107  0.66601463  0.66340411     0.00500
C4422       C  0.43535130  0.68604408  0.65140372    -0.07900
C4423       C  0.42675160  0.69357009  0.62653788     0.62500
H4424       H  0.46031109  0.71583089  0.65539878     0.13100
H4425       H  0.42761753  0.64198381  0.69345130     0.13200
C4426       C  0.46555223  0.66096914  0.71927470     0.62700
F4427       F  0.40268622  0.69967610  0.62704703    -0.22500
F4428       F  0.42990496  0.67463053  0.61058276    -0.19800
F4429       F  0.43945230  0.71327984  0.61802455    -0.19500
F4430       F  0.46323884  0.67779554  0.73756032    -0.19500
F4431       F  0.48971622  0.65657334  0.71554951    -0.19900
F4432       F  0.45481981  0.63969471  0.72668656    -0.22500
C4433       C  0.44900253  0.83740960  0.68664260    -0.05400
C4434       C  0.44107670  0.81359741  0.69060828     0.00600
C4435       C  0.42347668  0.80325282  0.67480538    -0.08000
C4436       C  0.41449436  0.81743854  0.65590786    -0.05400
C4437       C  0.42212222  0.84126811  0.65256271     0.00500
C4438       C  0.43981567  0.85147555  0.66785487    -0.07900
C4439       C  0.44881582  0.87716471  0.66439629     0.62500
H4440       H  0.46244737  0.84513552  0.69858128     0.13100
H4441       H  0.40056490  0.81044775  0.64405596     0.13200
C4442       C  0.41383400  0.77762774  0.67758575     0.62700
F4443       F  0.46804861  0.88249812  0.67946860    -0.22500
F4444       F  0.43068467  0.89343473  0.66928206    -0.19800
F4445       F  0.45629031  0.88019341  0.64091025    -0.19500
F4446       F  0.40215494  0.77551342  0.69939870    -0.19500
F4447       F  0.43247262  0.76117825  0.67638811    -0.19900
F4448       F  0.39746389  0.77158379  0.65965680    -0.22500
C4449       C  0.43610404  0.70835922  0.82004765    -0.05400
C4450       C  0.42969177  0.71392251  0.79611171     0.00600
C4451       C  0.41045893  0.70062260  0.78494639    -0.08000
C4452       C  0.39943817  0.68184051  0.79794036    -0.05400
C4453       C  0.40651321  0.67613852  0.82141310     0.00500
C4454       C  0.42469153  0.68982627  0.83295897    -0.07900
C4455       C  0.43182307  0.68486624  0.85890603     0.62500
H4456       H  0.45043960  0.71852458  0.82864693     0.13100
H4457       H  0.38502281  0.67129035  0.78992370     0.13200
C4458       C  0.40145462  0.70554606  0.75946453     0.62700
F4459       F  0.45102793  0.69907050  0.86629855    -0.22500
F4460       F  0.43837563  0.66094512  0.86149202    -0.19800
F4461       F  0.41263285  0.68969370  0.87385425    -0.19500
F4462       F  0.41954445  0.70130365  0.74304344    -0.19500
F4463       F  0.39376392  0.72921535  0.75771273    -0.19900
F4464       F  0.38223092  0.69084113  0.75310292    -0.22500
C4465       C  0.57444252  0.70515647  0.79273925    -0.05400
C4466       C  0.55005328  0.69960752  0.78929085     0.00600
C4467       C  0.53850049  0.68312019  0.80498395    -0.08000
C4468       C  0.55172350  0.67306607  0.82405657    -0.05400
C4469       C  0.57586016  0.67921848  0.82801158     0.00500
C4470       C  0.58760398  0.69528485  0.81208377    -0.07900
C4471       C  0.61363399  0.70263373  0.81623519     0.62500
H4472       H  0.58270149  0.71832230  0.78099609     0.13100
H4473       H  0.54324612  0.66045022  0.83624051     0.13200
C4474       C  0.51192366  0.67704863  0.80239050     0.62700
F4475       F  0.61603078  0.71296944  0.83882688    -0.22500
F4476       F  0.62136308  0.71923866  0.79938386    -0.19800
F4477       F  0.62841533  0.68266964  0.81478766    -0.19500
F4478       F  0.50591913  0.67360186  0.77841055    -0.19500
F4479       F  0.49832887  0.69571462  0.81167807    -0.19900
F4480       F  0.50607503  0.65613711  0.81464131    -0.22500
C4481       C  0.54704705  0.79281044  0.66012085    -0.05400
C4482       C  0.55746761  0.79108983  0.68303451     0.00600
C4483       C  0.57633259  0.80709551  0.68952252    -0.08000
C4484       C  0.58241916  0.82598473  0.67370338    -0.05400
C4485       C  0.56974315  0.82965447  0.65204261     0.00500
C4486       C  0.55247469  0.81207160  0.64453586    -0.07900
C4487       C  0.53807635  0.81459629  0.62133347     0.62500
H4488       H  0.53253420  0.78044529  0.65567812     0.13100
H4489       H  0.59620701  0.83891788  0.67878765     0.13200
C4490       C  0.58962276  0.80428327  0.71327739     0.62700
F4491       F  0.52157396  0.79601241  0.61834807    -0.22500
F4492       F  0.55322857  0.81405217  0.60173955    -0.19800
F4493       F  0.52556049  0.83613759  0.62162066    -0.19500
F4494       F  0.59904836  0.78124004  0.71463695    -0.19500
F4495       F  0.57416206  0.80785452  0.73233951    -0.19900
F4496       F  0.60838804  0.82064872  0.71553690    -0.22500
C4497       C  0.18589906  0.17107221  0.43991817    -0.05400
C4498       C  0.17583712  0.19294200  0.44823133     0.00600
C4499       C  0.15424165  0.20136621  0.43712754    -0.08000
C4500       C  0.14524896  0.18890489  0.41680259    -0.05400
C4501       C  0.15612030  0.16783766  0.40813002     0.00500
C4502       C  0.17628862  0.15826383  0.42023840    -0.07900
C4503       C  0.18757529  0.13458335  0.41233713     0.62500
H4504       H  0.20181534  0.16408701  0.44871843     0.13100
H4505       H  0.12911692  0.19510256  0.40774695     0.13200
C4506       C  0.14024517  0.22294815  0.44648815     0.62700
F4507       F  0.20756090  0.12880431  0.42611731    -0.22500
F4508       F  0.19471994  0.13621627  0.38861762    -0.19800
F4509       F  0.17107226  0.11599859  0.41449336    -0.19500
F4510       F  0.15294071  0.24400453  0.44241948    -0.19500
F4511       F  0.13611628  0.22035860  0.47086790    -0.19900
F4512       F  0.11804783  0.22507349  0.43524170    -0.22500
C4513       C  0.28577732  0.18034938  0.56665025    -0.05400
C4514       C  0.28155101  0.17782158  0.54174135     0.00600
C4515       C  0.29650874  0.16161724  0.52833368    -0.08000
C4516       C  0.31523360  0.14942885  0.54048019    -0.05400
C4517       C  0.31943502  0.15262716  0.56512778     0.00500
C4518       C  0.30442874  0.16813571  0.57855769    -0.07900
C4519       C  0.30827809  0.17201795  0.60541998     0.62500
H4520       H  0.27448744  0.19240036  0.57693545     0.13100
H4521       H  0.32696731  0.13723125  0.53084828     0.13200
C4522       C  0.29323013  0.15683820  0.50147972     0.62700
F4523       F  0.29362412  0.19003113  0.61443289    -0.22500
F4524       F  0.33188710  0.17861723  0.60995333    -0.19800
F4525       F  0.30311370  0.15098811  0.61768057    -0.19500
F4526       F  0.29725917  0.17774510  0.48854381    -0.19500
F4527       F  0.27018982  0.14837554  0.49705099    -0.19900
F4528       F  0.30910424  0.13958685  0.49300800    -0.22500
C4529       C  0.32093996  0.30320959  0.58423979    -0.05400
C4530       C  0.31604640  0.32799422  0.58474678     0.00600
C4531       C  0.30057559  0.33819220  0.56723561    -0.08000
C4532       C  0.29090243  0.32310018  0.54919439    -0.05400
C4533       C  0.29564503  0.29824631  0.54871762     0.00500
C4534       C  0.31087683  0.28794339  0.56656711    -0.07900
C4535       C  0.31759654  0.26128247  0.56637856     0.62500
H4536       H  0.33305410  0.29602652  0.59775008     0.13100
H4537       H  0.27854170  0.33038961  0.53596152     0.13200
C4538       C  0.29342148  0.36460517  0.56837899     0.62700
F4539       F  0.33341106  0.25566248  0.58486746    -0.22500
F4540       F  0.32857832  0.25569854  0.54481818    -0.19800
F4541       F  0.29752797  0.24682057  0.56914960    -0.19500
F4542       F  0.31345291  0.37922221  0.56615230    -0.19500
F4543       F  0.28251757  0.36928430  0.59020322    -0.19900
F4544       F  0.27741251  0.37060425  0.55019227    -0.22500
C4545       C  0.17592236  0.32067527  0.41181285    -0.05400
C4546       C  0.17095558  0.34301313  0.42257618     0.00600
C4547       C  0.18638499  0.35207545  0.44091241    -0.08000
C4548       C  0.20465675  0.33697498  0.44989088    -0.05400
C4549       C  0.20827448  0.31382539  0.44033331     0.00500
C4550       C  0.19490811  0.30624453  0.41990605    -0.07900
C4551       C  0.19975871  0.28286553  0.40648609     0.62500
H4552       H  0.16498541  0.31459225  0.39672162     0.13100
H4553       H  0.21505137  0.34240589  0.46556544     0.13200
C4554       C  0.18317406  0.37722298  0.45126845     0.62700
F4555       F  0.20296989  0.28779610  0.38232032    -0.22500
F4556       F  0.18030074  0.26750714  0.40885047    -0.19800
F4557       F  0.22017242  0.27124512  0.41473169    -0.19500
F4558       F  0.16055483  0.37929782  0.46122334    -0.19500
F4559       F  0.18571657  0.39417830  0.43325211    -0.19900
F4560       F  0.20007510  0.38231036  0.46900689    -0.22500
C4561       C  0.30370276  0.19045590  0.40134593    -0.05400
C4562       C  0.32614770  0.18456826  0.41113338     0.00600
C4563       C  0.33524142  0.19743315  0.43129425    -0.08000
C4564       C  0.32068998  0.21518416  0.44192400    -0.05400
C4565       C  0.29739195  0.21965502  0.43330671     0.00500
C4566       C  0.28905119  0.20788119  0.41214100    -0.07900
C4567       C  0.26408072  0.21223579  0.40194203     0.62500
H4568       H  0.29728546  0.18046563  0.38575976     0.13100
H4569       H  0.32653290  0.22412815  0.45833111     0.13200
C4570       C  0.35966129  0.19159219  0.44210255     0.62700
F4571       F  0.26257145  0.20512931  0.37805003    -0.22500
F4572       F  0.25851648  0.23653230  0.40313274    -0.19800
F4573       F  0.24735101  0.19919583  0.41488513    -0.19500
F4574       F  0.37740131  0.19579356  0.42529335    -0.19500
F4575       F  0.36034763  0.16761196  0.44891777    -0.19900
F4576       F  0.36463537  0.20558673  0.46224610    -0.22500
C4577       C  0.17990619  0.32256160  0.58931860    -0.05400
C4578       C  0.15880894  0.33218002  0.57928130     0.00600
C4579       C  0.14849550  0.32099435  0.55877652    -0.08000
C4580       C  0.16027174  0.30115912  0.54829454    -0.05400
C4581       C  0.18178941  0.29158497  0.55780362     0.00500
C4582       C  0.19143887  0.30214193  0.57932814    -0.07900
C4583       C  0.21364548  0.29227838  0.59197360     0.62500
H4584       H  0.18692541  0.33100055  0.60552226     0.13100
H4585       H  0.15265807  0.29305160  0.53220854     0.13200
C4586       C  0.12494654  0.32990863  0.54811597     0.62700
F4587       F  0.21874266  0.30462258  0.61314162    -0.22500
F4588       F  0.23346237  0.29436053  0.57720815    -0.19800
F4589       F  0.20996398  0.26829870  0.59784970    -0.19500
F4590       F  0.12740515  0.35364992  0.54092683    -0.19500
F4591       F  0.10698852  0.32838802  0.56514811    -0.19900
F4592       F  0.11784579  0.31638989  0.52828272    -0.22500
C4593       C  0.18268167  0.42508887  0.14244515    -0.05400
C4594       C  0.16253469  0.41390278  0.15251610     0.00600
C4595       C  0.15381448  0.42177684  0.17501033    -0.08000
C4596       C  0.16506251  0.44144830  0.18633963    -0.05400
C4597       C  0.18513354  0.45320550  0.17637863     0.00500
C4598       C  0.19469527  0.44430687  0.15416730    -0.07900
C4599       C  0.21766878  0.45409456  0.14289411     0.62500
H4600       H  0.18889370  0.41846135  0.12521482     0.13100
H4601       H  0.15800835  0.44775417  0.20333055     0.13200
C4602       C  0.13204626  0.41012776  0.18663978     0.62700
F4603       F  0.22277647  0.44293485  0.12117771    -0.22500
F4604       F  0.23698262  0.45004528  0.15817003    -0.19800
F4605       F  0.21545600  0.47855266  0.13844631    -0.19500
F4606       F  0.13463499  0.38532288  0.18723174    -0.19500
F4607       F  0.11161662  0.41585727  0.17361368    -0.19900
F4608       F  0.12896638  0.41801040  0.21010179    -0.22500
C4609       C  0.29399038  0.58080535  0.19370907    -0.05400
C4610       C  0.28540116  0.55918096  0.18323392     0.00600
C4611       C  0.29856384  0.54854638  0.16377218    -0.08000
C4612       C  0.31945577  0.56019851  0.15586008    -0.05400
C4613       C  0.32775988  0.58142843  0.16660994     0.00500
C4614       C  0.31521586  0.59194340  0.18591387    -0.07900
C4615       C  0.32461055  0.61454798  0.19842104     0.62500
H4616       H  0.28434077  0.58869314  0.20863781     0.13100
H4617       H  0.32964297  0.55297530  0.14093156     0.13200
C4618       C  0.29162167  0.52482757  0.15143958     0.62700
F4619       F  0.32518001  0.63356425  0.18238623    -0.22500
F4620       F  0.34760710  0.61046859  0.20706937    -0.19800
F4621       F  0.31037089  0.62118566  0.21767907    -0.19500
F4622       F  0.26831863  0.52611238  0.14269336    -0.19500
F4623       F  0.29373612  0.50592295  0.16752385    -0.19900
F4624       F  0.30631597  0.51956492  0.13208170    -0.22500
C4625       C  0.31655934  0.54660556  0.29653558    -0.05400
C4626       C  0.29215581  0.54271946  0.30127888     0.00600
C4627       C  0.28081102  0.55574915  0.31998936    -0.08000
C4628       C  0.29387062  0.57392621  0.33212211    -0.05400
C4629       C  0.31795495  0.57878645  0.32649571     0.00500
C4630       C  0.32991222  0.56415528  0.30934310    -0.07900
C4631       C  0.35659830  0.56712982  0.30466016     0.62500
H4632       H  0.32481854  0.53640217  0.28213124     0.13100
H4633       H  0.28532108  0.58470822  0.34592124     0.13200
C4634       C  0.25504413  0.55012326  0.32712003     0.62700
F4635       F  0.36445700  0.55175555  0.28666255    -0.22500
F4636       F  0.36938666  0.56191896  0.32540314    -0.19800
F4637       F  0.36155126  0.59057563  0.29777240    -0.19500
F4638       F  0.24816725  0.56305084  0.34728813    -0.19500
F4639       F  0.25299063  0.52577612  0.33228070    -0.19900
F4640       F  0.23936913  0.55573645  0.30858043    -0.22500
C4641       C  0.16694375  0.42011033  0.31030013    -0.05400
C4642       C  0.16529383  0.42976379  0.33357819     0.00600
C4643       C  0.18140238  0.44803675  0.34134132    -0.08000
C4644       C  0.19769017  0.45753329  0.32462447    -0.05400
C4645       C  0.19848801  0.44865749  0.30101208     0.00500
C4646       C  0.18359756  0.42917052  0.29380997    -0.07900
C4647       C  0.18557048  0.41801407  0.26885508     0.62500
H4648       H  0.15495584  0.40548590  0.30516321     0.13100
H4649       H  0.20916962  0.47264122  0.32951488     0.13200
C4650       C  0.18105239  0.45755070  0.36698232     0.62700
F4651       F  0.17209163  0.39704265  0.26677306    -0.22500
F4652       F  0.20933119  0.41232422  0.26431361    -0.19800
F4653       F  0.17752725  0.43404244  0.25159549    -0.19500
F4654       F  0.18574039  0.43897992  0.38287276    -0.19500
F4655       F  0.15872862  0.46719038  0.37200064    -0.19900
F4656       F  0.19822638  0.47534551  0.37070938    -0.22500
C4657       C  0.16967366  0.58933670  0.31178111    -0.05400
C4658       C  0.15679996  0.57365416  0.32680177     0.00600
C4659       C  0.15376420  0.54916841  0.32001543    -0.08000
C4660       C  0.16416179  0.54126740  0.29841481    -0.05400
C4661       C  0.17705241  0.55693914  0.28320257     0.00500
C4662       C  0.17986988  0.58150005  0.29003285    -0.07900
C4663       C  0.19319344  0.59958155  0.27449069     0.62500
H4664       H  0.17141844  0.60807201  0.31723823     0.13100
H4665       H  0.16263344  0.52229084  0.29371669     0.13200
C4666       C  0.14010058  0.53054490  0.33467610     0.62700
F4667       F  0.18912369  0.62310939  0.28190047    -0.22500
F4668       F  0.18551724  0.59751786  0.25084016    -0.19800
F4669       F  0.21767601  0.59547971  0.27582989    -0.19500
F4670       F  0.12353396  0.51881786  0.32003915    -0.19500
F4671       F  0.12776282  0.54032400  0.35385999    -0.19900
F4672       F  0.15618666  0.51370800  0.34349691    -0.22500
C4673       C  0.28448281  0.42496933  0.18973736    -0.05400
C4674       C  0.29526516  0.44241438  0.20470207     0.00600
C4675       C  0.31967633  0.44852632  0.20171882    -0.08000
C4676       C  0.33224890  0.43821742  0.18243946    -0.05400
C4677       C  0.32099078  0.42201080  0.16642669     0.00500
C4678       C  0.29708734  0.41432550  0.17065666    -0.07900
C4679       C  0.28497860  0.39511351  0.15514518     0.62500
H4680       H  0.26558816  0.42089731  0.19223357     0.13100
H4681       H  0.35085359  0.44310369  0.17935524     0.13200
C4682       C  0.33179660  0.46683101  0.21816802     0.62700
F4683       F  0.26212555  0.38959633  0.16327524    -0.22500
F4684       F  0.29844510  0.37416852  0.15556078    -0.19800
F4685       F  0.28290624  0.40304391  0.13168844    -0.19500
F4686       F  0.35627996  0.46824665  0.21406047    -0.19500
F4687       F  0.32844324  0.46020255  0.24189628    -0.19900
F4688       F  0.32191805  0.48943025  0.21449800    -0.22500
C4689       C  0.90215687  0.17303563  0.80540301    -0.05400
C4690       C  0.91327638  0.16288757  0.82569557     0.00600
C4691       C  0.93363606  0.17432500  0.83602034    -0.08000
C4692       C  0.94310150  0.19483997  0.82469772    -0.05400
C4693       C  0.93210886  0.20519596  0.80428060     0.00500
C4694       C  0.91034828  0.19479797  0.79528029    -0.07900
C4695       C  0.89490530  0.20694790  0.77614383     0.62500
H4696       H  0.88586490  0.16456731  0.79863528     0.13100
H4697       H  0.95937856  0.20290761  0.83188832     0.13200
C4698       C  0.94484038  0.16538438  0.85937039     0.62700
F4699       F  0.87210531  0.19688230  0.77483247    -0.22500
F4700       F  0.90535061  0.20452570  0.75374705    -0.19800
F4701       F  0.89218461  0.23118514  0.78169184    -0.19500
F4702       F  0.95294524  0.14200528  0.85655526    -0.19500
F4703       F  0.92795154  0.16597950  0.87752122    -0.19900
F4704       F  0.96419200  0.17950860  0.86656226    -0.22500
C4705       C  0.79892586  0.20144670  0.91845044    -0.05400
C4706       C  0.81392411  0.21616865  0.93278139     0.00600
C4707       C  0.83789606  0.20910225  0.93734312    -0.08000
C4708       C  0.84564085  0.18656771  0.92865634    -0.05400
C4709       C  0.83025715  0.17137052  0.91524141     0.00500
C4710       C  0.80671209  0.17912444  0.90945125    -0.07900
C4711       C  0.78992934  0.16394410  0.89381331     0.62500
H4712       H  0.78052199  0.20702602  0.91530214     0.13100
H4713       H  0.86397233  0.18079587  0.93191785     0.13200
C4714       C  0.85525256  0.22526134  0.95114973     0.62700
F4715       F  0.76818096  0.17538053  0.88969886    -0.22500
F4716       F  0.78523272  0.14222625  0.90502388    -0.19800
F4717       F  0.80038467  0.15949467  0.87172900    -0.19500
F4718       F  0.85191922  0.22226309  0.97559255    -0.19500
F4719       F  0.85152812  0.24924428  0.94525414    -0.19900
F4720       F  0.87887276  0.21974695  0.94573830    -0.22500
C4721       C  0.54273537  0.92504263  0.94370848    -0.05400
C4722       C  0.53998270  0.94926201  0.93699158     0.00600
C4723       C  0.55482489  0.95903301  0.91875726    -0.08000
C4724       C  0.57286114  0.94450382  0.90869565    -0.05400
C4725       C  0.57648402  0.92072735  0.91636109     0.00500
C4726       C  0.56085874  0.91048842  0.93363353    -0.07900
C4727       C  0.56399327  0.88463226  0.94200173     0.62500
H4728       H  0.53159942  0.91810324  0.95805520     0.13100
H4729       H  0.58460613  0.95168533  0.89496398     0.13200
C4730       C  0.55185042  0.98489459  0.91026842     0.62700
F4731       F  0.58667037  0.88182584  0.95193200    -0.22500
F4732       F  0.56134256  0.86896413  0.92273146    -0.19800
F4733       F  0.54720714  0.87836133  0.95921273    -0.19500
F4734       F  0.55905444  0.00078130  0.92817180    -0.19500
F4735       F  0.52798354  0.98909121  0.90457158    -0.19900
F4736       F  0.56543954  0.98954263  0.88998792    -0.22500
C4737       C  0.55612739  0.82266484  0.83890671    -0.05400
C4738       C  0.57387850  0.83539139  0.82630601     0.00600
C4739       C  0.57063275  0.84039513  0.80157781    -0.08000
C4740       C  0.55018253  0.83105184  0.78991872    -0.05400
C4741       C  0.53299436  0.81702619  0.80216578     0.00500
C4742       C  0.53543016  0.81368124  0.82732254    -0.07900
C4743       C  0.51665356  0.80050718  0.84204683     0.62500
H4744       H  0.55861139  0.81986233  0.85805500     0.13100
H4745       H  0.54832650  0.83350090  0.77067625     0.13200
C4746       C  0.58880050  0.85511075  0.78740324     0.62700
F4747       F  0.51783431  0.80734162  0.86601309    -0.22500
F4748       F  0.52047353  0.77587831  0.84057420    -0.19800
F4749       F  0.49375665  0.80581081  0.83373927    -0.19500
F4750       F  0.60976160  0.84207059  0.78471433    -0.19500
F4751       F  0.59392428  0.87653620  0.79925254    -0.19900
F4752       F  0.58024426  0.86081767  0.76466988    -0.22500
C4753       C  0.80788374  0.54182528  0.81855730    -0.05400
C4754       C  0.78655238  0.55054555  0.80826260     0.00600
C4755       C  0.77780175  0.57320851  0.81641865    -0.08000
C4756       C  0.79353691  0.58857280  0.82913551    -0.05400
C4757       C  0.81744602  0.58196945  0.83452587     0.00500
C4758       C  0.82178035  0.55646682  0.83427471    -0.07900
C4759       C  0.83555442  0.54308587  0.85376678     0.62500
H4760       H  0.81296824  0.52318410  0.81551370     0.13100
H4761       H  0.78693661  0.60608582  0.83464576     0.13200
C4762       C  0.75237599  0.58221620  0.81176901     0.62700
F4763       F  0.82088318  0.52535585  0.86335144    -0.22500
F4764       F  0.84227905  0.55801375  0.87263804    -0.19800
F4765       F  0.85553872  0.53190059  0.84418456    -0.19500
F4766       F  0.73660684  0.56375418  0.80577791    -0.19500
F4767       F  0.75277504  0.59900366  0.79340739    -0.19900
F4768       F  0.74349581  0.59315474  0.83229972    -0.22500
C4769       C  0.90951498  0.56513289  0.91288864    -0.05400
C4770       C  0.92286488  0.58079396  0.89819518     0.00600
C4771       C  0.94799405  0.57748587  0.89595480    -0.08000
C4772       C  0.95930157  0.56053091  0.91097115    -0.05400
C4773       C  0.94620743  0.54674137  0.92756354     0.00500
C4774       C  0.92087711  0.54798653  0.92769538    -0.07900
C4775       C  0.90623506  0.53233015  0.94452375     0.62500
H4776       H  0.89021362  0.56752048  0.91380949     0.13100
H4777       H  0.97873272  0.55906480  0.91105980     0.13200
C4778       C  0.96284291  0.59197114  0.87820765     0.62700
F4779       F  0.88178042  0.53584225  0.94144853    -0.22500
F4780       F  0.91212352  0.53768815  0.96818250    -0.19800
F4781       F  0.91112174  0.50826002  0.94002075    -0.19500
F4782       F  0.96348007  0.61602460  0.88481027    -0.19500
F4783       F  0.95288127  0.58993487  0.85543424    -0.19900
F4784       F  0.98632527  0.58378237  0.87714074    -0.22500
C4785       C  0.91266526  0.95265537  0.55117776    -0.05400
C4786       C  0.93558986  0.94418178  0.54432774     0.00600
C4787       C  0.94666999  0.92571790  0.55857530    -0.08000
C4788       C  0.93402616  0.91618892  0.57819843    -0.05400
C4789       C  0.91106832  0.92414608  0.58421544     0.00500
C4790       C  0.90017060  0.94283339  0.57087561    -0.07900
C4791       C  0.87532126  0.95197762  0.57741335     0.62500
H4792       H  0.90443061  0.96704717  0.54093277     0.13100
H4793       H  0.94161479  0.90165532  0.58876685     0.13200
C4794       C  0.97174773  0.91584941  0.55376491     0.62700
F4795       F  0.86860550  0.97158206  0.56355823    -0.22500
F4796       F  0.87504016  0.95904066  0.60131820    -0.19800
F4797       F  0.85851412  0.93383078  0.57391128    -0.19500
F4798       F  0.98858784  0.93417666  0.55595641    -0.19500
F4799       F  0.97258546  0.90579865  0.53095220    -0.19900
F4800       F  0.97823435  0.89797568  0.56988311    -0.22500
C4801       C  0.80540869  0.84689221  0.56234870    -0.05400
C4802       C  0.82473114  0.83441681  0.57280864     0.00600
C4803       C  0.83114447  0.81132706  0.56393109    -0.08000
C4804       C  0.81707904  0.80093969  0.54546579    -0.05400
C4805       C  0.79648836  0.81248924  0.53656330     0.00500
C4806       C  0.79088698  0.83607292  0.54447451    -0.07900
C4807       C  0.76920143  0.84927797  0.53450804     0.62500
H4808       H  0.80105997  0.86467917  0.56920605     0.13100
H4809       H  0.82100134  0.78288601  0.53907053     0.13200
C4810       C  0.85206158  0.79734616  0.57464107     0.62700
F4811       F  0.76895263  0.87324225  0.54170142    -0.22500
F4812       F  0.74832513  0.83833023  0.54242614    -0.19800
F4813       F  0.76964686  0.84861250  0.50962290    -0.19500
F4814       F  0.84796763  0.79311921  0.59878033    -0.19500
F4815       F  0.87310943  0.81042734  0.57225698    -0.19900
F4816       F  0.85517805  0.77525452  0.56333564    -0.22500
C4817       C  0.79664592  0.92828492  0.19878215    -0.05400
C4818       C  0.80871999  0.94825627  0.20919731     0.00600
C4819       C  0.83152895  0.95515904  0.19990317    -0.08000
C4820       C  0.84133356  0.94152208  0.18086761    -0.05400
C4821       C  0.82895610  0.92188096  0.17063347     0.00500
C4822       C  0.80625366  0.91507497  0.17957882    -0.07900
C4823       C  0.79232517  0.89378650  0.16901221     0.62500
H4824       H  0.77907776  0.92326771  0.20540658     0.13100
H4825       H  0.85879184  0.94611444  0.17362525     0.13200
C4826       C  0.84566466  0.97654705  0.20981193     0.62700
F4827       F  0.77002965  0.89102320  0.17962602    -0.22500
F4828       F  0.80506137  0.87267790  0.17246970    -0.19800
F4829       F  0.78864043  0.89714860  0.14463678    -0.19500
F4830       F  0.84771198  0.97472413  0.23456008    -0.19500
F4831       F  0.83416801  0.99784490  0.20388237    -0.19900
F4832       F  0.86867254  0.97759791  0.20046525    -0.22500
C4833       C  0.92961411  0.84226423  0.18616699    -0.05400
C4834       C  0.91199583  0.82951342  0.17329259     0.00600
C4835       C  0.90319016  0.80729188  0.18207523    -0.08000
C4836       C  0.91360464  0.79777434  0.20307383    -0.05400
C4837       C  0.93223303  0.80996635  0.21548831     0.00500
C4838       C  0.93956444  0.83320781  0.20750807    -0.07900
C4839       C  0.95723396  0.84892140  0.22153517     0.62500
H4840       H  0.93516485  0.85977062  0.17949752     0.13100
H4841       H  0.90806789  0.78006395  0.20914865     0.13200
C4842       C  0.88336329  0.79349910  0.16895128     0.62700
F4843       F  0.95598304  0.87282416  0.21441522    -0.22500
F4844       F  0.98051597  0.84111403  0.21781011    -0.19800
F4845       F  0.95196340  0.84809606  0.24582606    -0.19500
F4846       F  0.89168045  0.78591780  0.14678914    -0.19500
F4847       F  0.86350416  0.80808680  0.16553047    -0.19900
F4848       F  0.87596706  0.77339379  0.18171173    -0.22500
C4849       C  0.17767244  0.90824300  0.82014304    -0.05400
C4850       C  0.16445535  0.92142661  0.83698611     0.00600
C4851       C  0.17036924  0.94576160  0.84181451    -0.08000
C4852       C  0.19002115  0.95605396  0.82978881    -0.05400
C4853       C  0.20311162  0.94317921  0.81227046     0.00500
C4854       C  0.19650114  0.91879623  0.80705504    -0.07900
C4855       C  0.20839730  0.90392801  0.78739783     0.62500
H4856       H  0.17260903  0.88958658  0.81698754     0.13100
H4857       H  0.19466700  0.97471046  0.83342461     0.13200
C4858       C  0.15584732  0.96071906  0.85947486     0.62700
F4859       F  0.20121497  0.87997650  0.78790440    -0.22500
F4860       F  0.23313151  0.90450548  0.79019570    -0.19800
F4861       F  0.20205857  0.91301971  0.76508536    -0.19500
F4862       F  0.15741259  0.95075096  0.88220127    -0.19500
F4863       F  0.13200228  0.96118757  0.85230890    -0.19900
F4864       F  0.16396012  0.98435591  0.86081070    -0.22500
C4865       C  0.18006011  0.84477570  0.94562917    -0.05400
C4866       C  0.17129878  0.83463284  0.92413577     0.00600
C4867       C  0.18401130  0.81568731  0.91278687    -0.08000
C4868       C  0.20429753  0.80618921  0.92448431    -0.05400
C4869       C  0.21253995  0.81577201  0.94640208     0.00500
C4870       C  0.20106544  0.83604834  0.95661648    -0.07900
C4871       C  0.21161537  0.84876538  0.97852036     0.62500
H4872       H  0.17064801  0.86005624  0.95328254     0.13100
H4873       H  0.21326731  0.79046467  0.91718524     0.13200
C4874       C  0.17628685  0.80578151  0.88841409     0.62700
F4875       F  0.19801450  0.86855784  0.98522871    -0.22500
F4876       F  0.23453509  0.85676233  0.97311004    -0.19800
F4877       F  0.21289254  0.83323240  0.99789655    -0.19500
F4878       F  0.19004110  0.78615330  0.88154077    -0.19500
F4879       F  0.17883278  0.82357750  0.87121866    -0.19900
F4880       F  0.15252770  0.79842248  0.88904991    -0.22500
C4881       C  0.94806382  0.92130827  0.73232786    -0.05400
C4882       C  0.93334791  0.92961230  0.75107036     0.00600
C4883       C  0.90819689  0.92510260  0.74976870    -0.08000
C4884       C  0.89859803  0.91442062  0.72874751    -0.05400
C4885       C  0.91327685  0.90658522  0.70977162     0.00500
C4886       C  0.93860209  0.90889303  0.71219938    -0.07900
C4887       C  0.95643422  0.89802202  0.69469983     0.62500
H4888       H  0.96733895  0.92409226  0.73365863     0.13100
H4889       H  0.87933002  0.91195838  0.72697112     0.13200
C4890       C  0.89151773  0.93043848  0.77070210     0.62700
F4891       F  0.97421798  0.88605592  0.70743317    -0.22500
F4892       F  0.96695885  0.91625817  0.68145913    -0.19800
F4893       F  0.94601447  0.88148597  0.67910677    -0.19500
F4894       F  0.88792774  0.95500321  0.77280698    -0.19500
F4895       F  0.90134378  0.92172588  0.79188386    -0.19900
F4896       F  0.86924578  0.91956134  0.76757163    -0.22500
C4897       C  0.00367720  0.91002528  0.80878122    -0.05400
C4898       C  0.99908316  0.93490068  0.81177372     0.00600
C4899       C  0.01618798  0.94901443  0.82499021    -0.08000
C4900       C  0.03503574  0.93721416  0.83731118    -0.05400
C4901       C  0.03868009  0.91227838  0.83522307     0.00500
C4902       C  0.02377189  0.89872347  0.81946720    -0.07900
C4903       C  0.02977664  0.87274353  0.81317327     0.62500
H4904       H  0.99140138  0.89931556  0.79792427     0.13100
H4905       H  0.04738930  0.94747807  0.84853738     0.13200
C4906       C  0.01578024  0.97644234  0.82509713     0.62700
F4907       F  0.02687474  0.85817065  0.83307527    -0.22500
F4908       F  0.05337154  0.87136563  0.80552262    -0.19800
F4909       F  0.01522423  0.86394216  0.79481305    -0.19500
F4910       F  0.99761770  0.98471366  0.83982142    -0.19500
F4911       F  0.01231830  0.98487712  0.80191800    -0.19900
F4912       F  0.03729176  0.98604780  0.83348926    -0.22500
C4913       C  0.93549164  0.99934459  0.83548072    -0.05400
C4914       C  0.93419644  0.99648025  0.81035651     0.00600
C4915       C  0.92216199  0.01440091  0.79652261    -0.08000
C4916       C  0.91006016  0.03318451  0.80861809    -0.05400
C4917       C  0.91082663  0.03558548  0.83377912     0.00500
C4918       C  0.92446728  0.01883473  0.84744142    -0.07900
C4919       C  0.92805441  0.02178692  0.87444157     0.62500
H4920       H  0.94509132  0.98591543  0.84585358     0.13100
H4921       H  0.90006074  0.04648811  0.79844273     0.13200
C4922       C  0.92311440  0.01476322  0.76918297     0.62700
F4923       F  0.94464030  0.00548200  0.88342751    -0.22500
F4924       F  0.90664711  0.01803020  0.88632176    -0.19800
F4925       F  0.93642186  0.04480142  0.87952656    -0.19500
F4926       F  0.90881995  0.99664144  0.75966626    -0.19500
F4927       F  0.94656327  0.01165375  0.76161075    -0.19900
F4928       F  0.91501019  0.03650149  0.75998481    -0.22500
C4929       C  0.95145433  0.73526930  0.92216190    -0.05400
C4930       C  0.93813954  0.74586839  0.94104502     0.00600
C4931       C  0.91413248  0.73742866  0.94481767    -0.08000
C4932       C  0.90566592  0.71750039  0.93136187    -0.05400
C4933       C  0.91900763  0.70732985  0.91267045     0.00500
C4934       C  0.94182681  0.71702630  0.90718277    -0.07900
C4935       C  0.95517943  0.70926226  0.88470326     0.62500
H4936       H  0.96934401  0.74195180  0.91847111     0.13100
H4937       H  0.88787067  0.71021712  0.93454863     0.13200
C4938       C  0.89673197  0.74959143  0.96191028     0.62700
F4939       F  0.97718379  0.72083581  0.88265832    -0.22500
F4940       F  0.94153121  0.71490376  0.86460896    -0.19800
F4941       F  0.95924322  0.68466612  0.88506804    -0.19500
F4942       F  0.89582442  0.77411886  0.95735637    -0.19500
F4943       F  0.90397122  0.74556505  0.98528698    -0.19900
F4944       F  0.87354502  0.74067257  0.95940581    -0.22500
C4945       C  0.94095118  0.83035354  0.01109213    -0.05400
C4946       C  0.94008607  0.80499090  0.00931027     0.00600
C4947       C  0.92898065  0.79176237  0.02811496    -0.08000
C4948       C  0.91575654  0.80439579  0.04551577    -0.05400
C4949       C  0.91629512  0.82963512  0.04692734     0.00500
C4950       C  0.93029458  0.84284626  0.03031721    -0.07900
C4951       C  0.93447051  0.86983846  0.03318907     0.62500
H4952       H  0.94994328  0.84048885  0.99715776     0.13100
H4953       H  0.90595133  0.79440249  0.05906852     0.13200
C4954       C  0.93225884  0.76497981  0.03251571     0.62700
F4955       F  0.95167122  0.87829046  0.01735883    -0.22500
F4956       F  0.94240907  0.87485596  0.05632650    -0.19800
F4957       F  0.91342063  0.88222927  0.02887485    -0.19500
F4958       F  0.94858906  0.75435308  0.01718770    -0.19500
F4959       F  0.91033538  0.75334660  0.03039921    -0.19900
F4960       F  0.94073761  0.76174297  0.05575017    -0.22500
C4961       C  0.01096314  0.79933899  0.92488511    -0.05400
C4962       C  0.00460840  0.80548979  0.94868633     0.00600
C4963       C  0.01995268  0.82172564  0.96182652    -0.08000
C4964       C  0.03966389  0.83231131  0.94994892    -0.05400
C4965       C  0.04481603  0.82706467  0.92590873     0.00500
C4966       C  0.03095160  0.80965540  0.91338772    -0.07900
C4967       C  0.03750836  0.80195809  0.88798978     0.62500
H4968       H  0.99984544  0.78667428  0.91492868     0.13100
H4969       H  0.05085704  0.84555833  0.95907471     0.13200
C4970       C  0.01584910  0.82854205  0.98803228     0.62700
F4971       F  0.02293089  0.78340751  0.87961197    -0.22500
F4972       F  0.06104682  0.79395886  0.88768577    -0.19800
F4973       F  0.03518501  0.82120068  0.87239755    -0.19500
F4974       F  0.01305948  0.80798521  0.00183348    -0.19500
F4975       F  0.99568460  0.84295695  0.98979517    -0.19900
F4976       F  0.03503434  0.84140235  0.99766390    -0.22500
C4977       C  0.79110032  0.01748551  0.93117582    -0.05400
C4978       C  0.80580673  0.00267150  0.94558207     0.00600
C4979       C  0.83025451  0.00967998  0.94938239    -0.08000
C4980       C  0.83904027  0.03031214  0.93745539    -0.05400
C4981       C  0.82445512  0.04419190  0.92223333     0.00500
C4982       C  0.79992449  0.03804246  0.91934265    -0.07900
C4983       C  0.78308239  0.05290464  0.90372550     0.62500
H4984       H  0.77235364  0.01286001  0.92915861     0.13100
H4985       H  0.85774485  0.03554050  0.93933344     0.13200
C4986       C  0.84737785  0.99557641  0.96539297     0.62700
F4987       F  0.76083533  0.04187665  0.90093718    -0.22500
F4988       F  0.79272639  0.05601233  0.88107517    -0.19800
F4989       F  0.77955061  0.07523566  0.91427873    -0.19500
F4990       F  0.84840025  0.97177132  0.95783905    -0.19500
F4991       F  0.83963573  0.99679605  0.98896533    -0.19900
F4992       F  0.87054619  0.00479425  0.96484381    -0.22500
C4993       C  0.73755643  0.91421328  0.94443905    -0.05400
C4994       C  0.74380687  0.93810299  0.93823060     0.00600
C4995       C  0.72909475  0.95040276  0.92098829    -0.08000
C4996       C  0.70897789  0.93829750  0.91112998    -0.05400
C4997       C  0.70291571  0.91478883  0.91785270     0.00500
C4998       C  0.71719048  0.90249344  0.93488120    -0.07900
C4999       C  0.71108046  0.87693099  0.94266086     0.62500
H5000       H  0.74905415  0.90433191  0.95658607     0.13100
H5001       H  0.69776346  0.94695599  0.89772062     0.13200
C5002       C  0.73380120  0.97617863  0.91299494     0.62700
F5003       F  0.72495039  0.86967764  0.96209659    -0.22500
F5004       F  0.71502891  0.86107270  0.92383617    -0.19800
F5005       F  0.68720681  0.87557067  0.94937959    -0.19500
F5006       F  0.75580788  0.97766147  0.90161806    -0.19500
F5007       F  0.73329341  0.99135684  0.93279462    -0.19900
F5008       F  0.71659757  0.98427474  0.89683189    -0.22500
C5009       C  0.82698837  0.94082928  0.01131989    -0.05400
C5010       C  0.80262373  0.93653694  0.00569317     0.00600
C5011       C  0.78892385  0.92138469  0.02119279    -0.08000
C5012       C  0.80078242  0.90941612  0.04015253    -0.05400
C5013       C  0.82522158  0.91323873  0.04491513     0.00500
C5014       C  0.83835370  0.92996205  0.03107464    -0.07900
C5015       C  0.86441563  0.93602819  0.03696309     0.62500
H5016       H  0.83745681  0.95238768  0.99978658     0.13100
H5017       H  0.79105437  0.89692872  0.05150671     0.13200
C5018       C  0.76191617  0.91813169  0.01860446     0.62700
F5019       F  0.87243218  0.95582440  0.02413820    -0.22500
F5020       F  0.87881626  0.91658857  0.03133122    -0.19800
F5021       F  0.86699654  0.94137212  0.06118585    -0.19500
F5022       F  0.75694891  0.90252114  0.99979341    -0.19500
F5023       F  0.75097820  0.94016578  0.01454991    -0.19900
F5024       F  0.75191613  0.90851488  0.03923743    -0.22500
C5025       C  0.79129158  0.73423078  0.82085667    -0.05400
C5026       C  0.80203104  0.74554213  0.80085462     0.00600
C5027       C  0.82603970  0.73878673  0.79456198    -0.08000
C5028       C  0.83752423  0.72052274  0.80781213    -0.05400
C5029       C  0.82649689  0.70932468  0.82731305     0.00500
C5030       C  0.80330481  0.71656319  0.83446839    -0.07900
C5031       C  0.79168425  0.70608588  0.85680693     0.62500
H5032       H  0.77326652  0.73934384  0.82597288     0.13100
H5033       H  0.85542819  0.71459148  0.80306925     0.13200
C5034       C  0.83986537  0.75003128  0.77392838     0.62700
F5035       F  0.76974350  0.71674395  0.86163218    -0.22500
F5036       F  0.80659619  0.70984369  0.87649444    -0.19800
F5037       F  0.78788515  0.68157868  0.85384870    -0.19500
F5038       F  0.84061771  0.77489422  0.77634247    -0.19500
F5039       F  0.82889938  0.74361484  0.75254468    -0.19900
F5040       F  0.86342654  0.74206677  0.77294429    -0.22500
C5041       C  0.73265518  0.79918775  0.82657116    -0.05400
C5042       C  0.73498155  0.80437064  0.80178942     0.00600
C5043       C  0.71782529  0.82019376  0.79087958    -0.08000
C5044       C  0.70017287  0.83090088  0.80543637    -0.05400
C5045       C  0.69865175  0.82620524  0.83005206     0.00500
C5046       C  0.71470645  0.80976619  0.84087005    -0.07900
C5047       C  0.71271390  0.80339925  0.86737326     0.62500
H5048       H  0.74536465  0.78708120  0.83501407     0.13100
H5049       H  0.68743517  0.84355056  0.79781215     0.13200
C5050       C  0.71752913  0.82609155  0.76417063     0.62700
F5051       F  0.72825361  0.78498927  0.87375920    -0.22500
F5052       F  0.68953453  0.79587718  0.87236215    -0.19800
F5053       F  0.71817887  0.82334111  0.88142509    -0.19500
F5054       F  0.71763421  0.80501382  0.75074140    -0.19500
F5055       F  0.73728191  0.84015012  0.75854225    -0.19900
F5056       F  0.69717750  0.83890168  0.75757248    -0.22500
C5057       C  0.79468154  0.82854942  0.73390709    -0.05400
C5058       C  0.79244351  0.80326591  0.73394408     0.00600
C5059       C  0.80199098  0.78985679  0.71438338    -0.08000
C5060       C  0.81675161  0.80175607  0.69776374    -0.05400
C5061       C  0.82009437  0.82682648  0.69857061     0.00500
C5062       C  0.80771623  0.84068006  0.71601025    -0.07900
C5063       C  0.80827014  0.86811859  0.71586932     0.62500
H5064       H  0.78689902  0.83880484  0.74854118     0.13100
H5065       H  0.82510432  0.79147754  0.68343164     0.13200
C5066       C  0.79576889  0.76372041  0.70885121     0.62700
F5067       F  0.79035148  0.87768821  0.73019376    -0.22500
F5068       F  0.80469020  0.87663583  0.69274484    -0.19800
F5069       F  0.83019843  0.87633101  0.72445314    -0.19500
F5070       F  0.77945489  0.75391482  0.72475210    -0.19500
F5071       F  0.81644803  0.74996543  0.70894881    -0.19900
F5072       F  0.78564633  0.76241676  0.68607629    -0.22500
C5073       C  0.43450235  0.17168270  0.19441997    -0.05400
C5074       C  0.45002696  0.18586446  0.18038135     0.00600
C5075       C  0.44607424  0.18726947  0.15513917    -0.08000
C5076       C  0.42560171  0.17589039  0.14524569    -0.05400
C5077       C  0.40956769  0.16270145  0.15956209     0.00500
C5078       C  0.41447599  0.15975812  0.18438175    -0.07900
C5079       C  0.39898933  0.14362940  0.20006483     0.62500
H5080       H  0.43767403  0.17064229  0.21363386     0.13100
H5081       H  0.42193103  0.17709960  0.12611675     0.13200
C5082       C  0.46348216  0.20018195  0.13853321     0.62700
F5083       F  0.39901599  0.12037617  0.19090486    -0.22500
F5084       F  0.37566043  0.15209110  0.20059981    -0.19800
F5085       F  0.40741166  0.14276929  0.22354898    -0.19500
F5086       F  0.48689548  0.19403718  0.14440821    -0.19500
F5087       F  0.46068754  0.22490735  0.14052993    -0.19900
F5088       F  0.45960965  0.19385065  0.11468931    -0.22500
C5089       C  0.55138367  0.32501786  0.28142234    -0.05400
C5090       C  0.53687627  0.30741796  0.29216997     0.00600
C5091       C  0.53936536  0.30224698  0.31693553    -0.08000
C5092       C  0.55797800  0.31365168  0.32984627    -0.05400
C5093       C  0.57313106  0.33053165  0.31878540     0.00500
C5094       C  0.56912897  0.33733749  0.29460040    -0.07900
C5095       C  0.58308762  0.35782156  0.28301979     0.62500
H5096       H  0.54895431  0.32865658  0.26241220     0.13100
H5097       H  0.56082671  0.30964838  0.34871796     0.13200
C5098       C  0.52253928  0.28478435  0.32947564     0.62700
F5099       F  0.60738528  0.35272616  0.28300682    -0.22500
F5100       F  0.57928683  0.37896912  0.29573767    -0.19800
F5101       F  0.57591598  0.36159901  0.25942853    -0.19500
F5102       F  0.52364838  0.26224156  0.31875670    -0.19500
F5103       F  0.49926099  0.29337393  0.32786411    -0.19900
F5104       F  0.52828834  0.28224853  0.35361492    -0.22500
C5105       C  0.54603100  0.17019409  0.28939712    -0.05400
C5106       C  0.55379352  0.19340573  0.28262011     0.00600
C5107       C  0.57234718  0.20490396  0.29645258    -0.08000
C5108       C  0.58127943  0.19308897  0.31702051    -0.05400
C5109       C  0.57328461  0.17007798  0.32362074     0.00500
C5110       C  0.55586051  0.15802911  0.30925643    -0.07900
C5111       C  0.54690015  0.13249676  0.31381967     0.62500
H5112       H  0.53204795  0.16125406  0.27895979     0.13100
H5113       H  0.59515844  0.20147599  0.32799989     0.13200
C5114       C  0.58291640  0.22943209  0.29000432     0.62700
F5115       F  0.52272234  0.13325097  0.31940861    -0.22500
F5116       F  0.55880669  0.12089847  0.33232634    -0.19800
F5117       F  0.54979497  0.11882729  0.29314638    -0.19500
F5118       F  0.56528067  0.24694888  0.29075945    -0.19500
F5119       F  0.59278037  0.22840431  0.26722748    -0.19900
F5120       F  0.60103882  0.23646014  0.30576819    -0.22500
C5121       C  0.56673210  0.30494710  0.18294395    -0.05400
C5122       C  0.54946433  0.29042037  0.17109560     0.00600
C5123       C  0.54353589  0.29543580  0.14667549    -0.08000
C5124       C  0.55433615  0.31549238  0.13557219    -0.05400
C5125       C  0.57083800  0.33031946  0.14786127     0.00500
C5126       C  0.57756867  0.32482249  0.17177516    -0.07900
C5127       C  0.59619154  0.33977656  0.18544981     0.62500
H5128       H  0.57109536  0.30125390  0.20157497     0.13100
H5129       H  0.55007206  0.31978702  0.11702494     0.13200
C5130       C  0.52604059  0.28000498  0.13213600     0.62700
F5131       F  0.60126069  0.33017101  0.20787745    -0.22500
F5132       F  0.58780498  0.36297443  0.18888847    -0.19800
F5133       F  0.61741726  0.34067102  0.17265356    -0.19500
F5134       F  0.50269784  0.28545479  0.13860763    -0.19500
F5135       F  0.53040102  0.25575077  0.13609741    -0.19900
F5136       F  0.52829953  0.28407627  0.10767027    -0.22500
C5137       C  0.41911981  0.30224455  0.18545168    -0.05400
C5138       C  0.43670514  0.31146383  0.20121062     0.00600
C5139       C  0.44312004  0.33619567  0.20017190    -0.08000
C5140       C  0.43202378  0.35082533  0.18262864    -0.05400
C5141       C  0.41548788  0.34110873  0.16597419     0.00500
C5142       C  0.40849524  0.31658687  0.16762827    -0.07900
C5143       C  0.39049270  0.30539297  0.15012240     0.62500
H5144       H  0.41492797  0.28313829  0.18625106     0.13100
H5145       H  0.43659916  0.36979807  0.18131743     0.13200
C5146       C  0.46231264  0.34666585  0.21676026     0.62700
F5147       F  0.39973225  0.30578976  0.12709197    -0.22500
F5148       F  0.36916335  0.31812579  0.15049865    -0.19800
F5149       F  0.38533653  0.28162912  0.15584084    -0.19500
F5150       F  0.48376521  0.33447599  0.21365667    -0.19500
F5151       F  0.45507113  0.34438126  0.24041105    -0.19900
F5152       F  0.46642782  0.37089891  0.21226208    -0.22500
C5153       C  0.43378646  0.19266083  0.33537170    -0.05400
C5154       C  0.41544477  0.17823363  0.32544338     0.00600
C5155       C  0.40738960  0.18229602  0.30157428    -0.08000
C5156       C  0.41852381  0.20052577  0.28814046    -0.05400
C5157       C  0.43752059  0.21428817  0.29767127     0.00500
C5158       C  0.44535407  0.21048920  0.32163257    -0.07900
C5159       C  0.46637417  0.22462711  0.33220389     0.62500
H5160       H  0.43922376  0.18949059  0.35384111     0.13100
H5161       H  0.41345424  0.20327825  0.26949049     0.13200
C5162       C  0.38771212  0.16691929  0.29008847     0.62700
F5163       F  0.47209236  0.21705384  0.35525326    -0.22500
F5164       F  0.46054977  0.24886836  0.33317554    -0.19800
F5165       F  0.48655751  0.22167877  0.31806524    -0.19500
F5166       F  0.38349251  0.17329627  0.26636170    -0.19500
F5167       F  0.36642585  0.16963934  0.30248531    -0.19900
F5168       F  0.39438009  0.14289504  0.29051274    -0.22500
C5169       C  0.53380766  0.41214868  0.43897109    -0.05400
C5170       C  0.52701983  0.43536721  0.43098379     0.00600
C5171       C  0.53993478  0.44585327  0.41150461    -0.08000
C5172       C  0.56099967  0.43448284  0.40351251    -0.05400
C5173       C  0.56811356  0.41197595  0.41230032     0.00500
C5174       C  0.55366502  0.39989277  0.42925775    -0.07900
C5175       C  0.55917563  0.37411247  0.43673234     0.62500
H5176       H  0.52358744  0.40363182  0.45313379     0.13100
H5177       H  0.57170276  0.44260779  0.38944591     0.13200
C5178       C  0.53143870  0.46825982  0.39827034     0.62700
F5179       F  0.54287515  0.36554614  0.45340549    -0.22500
F5180       F  0.58194346  0.37297091  0.44679087    -0.19800
F5181       F  0.55815092  0.35905164  0.41683339    -0.19500
F5182       F  0.53514558  0.48862092  0.41230154    -0.19500
F5183       F  0.50727432  0.46590713  0.39259093    -0.19900
F5184       F  0.54365227  0.47149744  0.37686416    -0.22500
C5185       C  0.41672437  0.55393357  0.58419947    -0.05400
C5186       C  0.41273422  0.57807205  0.57787633     0.00600
C5187       C  0.42781998  0.58930740  0.56070243    -0.08000
C5188       C  0.44524065  0.57524210  0.54884980    -0.05400
C5189       C  0.44841083  0.55078704  0.55439148     0.00500
C5190       C  0.43461680  0.54013948  0.57291275    -0.07900
C5191       C  0.43865158  0.51410868  0.58039543     0.62500
H5192       H  0.40564649  0.54597779  0.59806498     0.13100
H5193       H  0.45572353  0.58291183  0.53438044     0.13200
C5194       C  0.42510103  0.61587573  0.55461682     0.62700
F5195       F  0.42727598  0.50887923  0.60186009    -0.22500
F5196       F  0.46299685  0.50997246  0.58353288    -0.19800
F5197       F  0.42982405  0.49863119  0.56285553    -0.19500
F5198       F  0.44178962  0.62327775  0.53777610    -0.19500
F5199       F  0.42842002  0.62984472  0.57504284    -0.19900
F5200       F  0.40234657  0.62000212  0.54538290    -0.22500
C5201       C  0.41164292  0.55709292  0.44934002    -0.05400
C5202       C  0.42889460  0.54409359  0.43599923     0.00600
C5203       C  0.43362437  0.55127848  0.41190032    -0.08000
C5204       C  0.42088501  0.57103124  0.40226733    -0.05400
C5205       C  0.40399444  0.58390740  0.41580865     0.00500
C5206       C  0.39912302  0.57688323  0.43967621    -0.07900
C5207       C  0.38050389  0.59006517  0.45467970     0.62500
H5208       H  0.40822231  0.55192231  0.46777119     0.13100
H5209       H  0.42396702  0.57670476  0.38390513     0.13200
C5210       C  0.45175358  0.53831620  0.39615498     0.62700
F5211       F  0.37904929  0.58089725  0.47777680    -0.22500
F5212       F  0.35809301  0.58783702  0.44398036    -0.19800
F5213       F  0.38643438  0.61427248  0.45644156    -0.19500
F5214       F  0.44728351  0.51372552  0.39632417    -0.19500
F5215       F  0.47479976  0.54285020  0.40455115    -0.19900
F5216       F  0.45058319  0.54597745  0.37248338    -0.22500
C5217       C  0.43890476  0.42088675  0.55122935    -0.05400
C5218       C  0.42513131  0.43560580  0.53577164     0.00600
C5219       C  0.40043712  0.43952558  0.54112665    -0.08000
C5220       C  0.39064259  0.42821378  0.56148500    -0.05400
C5221       C  0.40485778  0.41464811  0.57731880     0.00500
C5222       C  0.42945413  0.41100515  0.57236249    -0.07900
C5223       C  0.44607622  0.39795089  0.58979393     0.62500
H5224       H  0.45783750  0.41847673  0.54760467     0.13100
H5225       H  0.37181404  0.43051734  0.56579618     0.13200
C5226       C  0.38444648  0.45603713  0.52627142     0.62700
F5227       F  0.45036791  0.41246586  0.60966281    -0.22500
F5228       F  0.46803008  0.39265066  0.57941881    -0.19800
F5229       F  0.43586923  0.37645455  0.59718812    -0.19500
F5230       F  0.38654422  0.45057590  0.50207072    -0.19500
F5231       F  0.39096582  0.47984482  0.53028081    -0.19900
F5232       F  0.36044551  0.45365281  0.53237514    -0.22500
C5233       C  0.56254013  0.58026176  0.43311641    -0.05400
C5234       C  0.57973118  0.56629477  0.42103099     0.00600
C5235       C  0.58372209  0.54211206  0.42806046    -0.08000
C5236       C  0.56979630  0.53245982  0.44682178    -0.05400
C5237       C  0.55179134  0.54605839  0.45817946     0.00500
C5238       C  0.54805361  0.57031793  0.45129213    -0.07900
C5239       C  0.52799666  0.58508934  0.46236042     0.62500
H5240       H  0.55993601  0.59878160  0.42748354     0.13100
H5241       H  0.57169166  0.51362055  0.45166064     0.13200
C5242       C  0.60195969  0.52643124  0.41514460     0.62700
F5243       F  0.52718503  0.60825887  0.45312507    -0.22500
F5244       F  0.53155074  0.58669245  0.48696666    -0.19800
F5245       F  0.50602802  0.57413335  0.45779719    -0.19500
F5246       F  0.62459025  0.53669327  0.41701779    -0.19500
F5247       F  0.59575714  0.52435953  0.39109024    -0.19900
F5248       F  0.60303097  0.50341349  0.42472126    -0.22500
C5249       C  0.56455530  0.44290088  0.54356910    -0.05400
C5250       C  0.54251894  0.45088165  0.55273619     0.00600
C5251       C  0.53376669  0.44101289  0.57445410    -0.08000
C5252       C  0.54708847  0.42269499  0.58594815    -0.05400
C5253       C  0.56876586  0.41410083  0.57632052     0.00500
C5254       C  0.57807007  0.42483639  0.55519014    -0.07900
C5255       C  0.60199448  0.41698366  0.54480115     0.62500
H5256       H  0.57060900  0.45027678  0.52661260     0.13100
H5257       H  0.54067001  0.41482357  0.60253641     0.13200
C5258       C  0.51018869  0.44960896  0.58502758     0.62700
F5259       F  0.60806011  0.43027384  0.52465333    -0.22500
F5260       F  0.60084464  0.39291170  0.53822144    -0.19800
F5261       F  0.62003574  0.42011948  0.56176392    -0.19500
F5262       F  0.49150289  0.44443755  0.56930970    -0.19500
F5263       F  0.51122043  0.47429968  0.58879928    -0.19900
F5264       F  0.50531838  0.43861271  0.60680538    -0.22500
loop_ 
_geom_bond_atom_site_label_1 
_geom_bond_atom_site_label_2 
_geom_bond_distance 
_geom_bond_site_symmetry_2 
_ccdc_geom_bond_type 
O1           C17   1.274       .  A
O1           Zn7   2.022       .  S
C2           O18   1.275       .  A
C2           O15   1.274       .  A
C2         C5202   1.498       .  S
O3           C16   1.281       .  A
O3          Cd10   2.126       .  S
O4           C22   1.266       .  A
O4          Cd13   2.012       .  S
O5           C19   1.275       .  A
O5           Cd9   2.057       .  S
O6           C17   1.274       .  A
O6           Cd9   2.054       .  S
Zn7          O18   2.037       .  S
Zn7          O20   1.954       .  S
Zn7          O12   1.919       .  S
O8           C19   1.270       .  A
O8          Cd13   2.053       .  S
Cd9          O11   2.030       .  S
Cd9          O12   1.979       .  S
Cd10         O14   2.124       .  S
Cd10         O23   2.126       .  S
Cd10         O12   2.036       .  S
O11          C21   1.267       .  A
O12         Cd13   1.981       .  S
Cd13         O15   2.057       .  S
O14          C21   1.281       .  A
C16          O20   1.265       .  A
C16        C5237   1.474       .  S
C17        C5170   1.498       .  S
C19        C5218   1.489       .  S
C21        C5250   1.476       .  S
C22          O23   1.282       .  A
C22        C5189   1.472       .  S
O24          C40   1.277       .  A
O24         Zn30   2.026       .  S
C25          O41   1.275       .  A
C25          O38   1.271       .  A
C25        C5106   1.494       .  S
O26          C39   1.276       .  A
O26         Cd33   2.094       .  S
O27          C45   1.268       .  A
O27         Cd36   2.021       .  S
O28          C42   1.270       .  A
O28         Cd32   2.054       .  S
O29          C40   1.270       .  A
O29         Cd32   2.041       .  S
Zn30         O41   2.016       .  S
Zn30         O43   1.958       .  S
Zn30         O35   1.914       .  S
O31          C42   1.275       .  A
O31         Cd36   2.058       .  S
Cd32         O34   2.012       .  S
Cd32         O35   1.963       .  S
Cd33         O37   2.103       .  S
Cd33         O46   2.075       .  S
Cd33         O35   2.026       .  S
O34          C44   1.267       .  A
O35         Cd36   1.973       .  S
Cd36         O38   2.057       .  S
O37          C44   1.278       .  A
C39          O43   1.266       .  A
C39        C5157   1.465       .  S
C40        C5074   1.484       .  S
C42        C5122   1.487       .  S
C44        C5138   1.470       .  S
C45          O46   1.274       .  A
C45        C5090   1.460       .  S
C47        C5026   1.504       .  S
C47          N48   1.363       .  A
C47          N52   1.356       .  A
N48          C49   1.363       .  A
C49        C5042   1.503       .  S
C49          N50   1.358       .  A
N50          C51   1.358       .  A
C51        C5058   1.482       .  S
C51          N52   1.356       .  A
C53        C4994   1.505       .  S
C53          N54   1.358       .  A
C53          N58   1.361       .  A
N54          C55   1.361       .  A
C55        C4978   1.501   1_565  S
C55          N56   1.357       .  A
N56          C57   1.361       .  A
C57        C5010   1.494   1_556  S
C57          N58   1.358       .  A
C59        C4946   1.487   1_556  S
C59          N60   1.362       .  A
C59          N64   1.356       .  A
N60          C61   1.363       .  A
C61        C4930   1.509       .  S
C61          N62   1.364       .  A
N62          C63   1.361       .  A
C63        C4962   1.504   1_655  S
C63          N64   1.353       .  A
C65        C4882   1.490       .  S
C65          N66   1.363       .  A
C65          N70   1.358       .  A
N66          C67   1.364       .  A
C67        C4898   1.506       .  S
C67          N68   1.362       .  A
N68          C69   1.362       .  A
C69        C4914   1.495       .  S
C69          N70   1.357       .  A
N71          C76   1.356       .  A
N71          C75   1.353       .  A
N71         H103   1.039       .  S
N72          C79   1.350       .  A
N72          C80   1.351       .  A
N73          C78   1.350       .  A
N73          C77   1.349       .  A
N73         H104   1.038       .  S
N74          C81   1.351       .  A
N74          C82   1.351       .  A
C75          C83   1.388       .  A
C75          C91   1.418       .  A
C76          C92   1.418       .  A
C76          C84   1.386       .  A
C77          C85   1.388       .  A
C77          C94   1.410       .  A
C78          C93   1.410       .  A
C78          C86   1.387       .  A
C79          C91   1.414       .  A
C79          C87   1.387       .  A
C80          C94   1.415       .  A
C80          C88   1.387       .  A
C81          C89   1.386       .  A
C81          C92   1.414       .  A
C82          C90   1.385       .  A
C82          C93   1.412       .  A
C83          C84   1.377       .  A
C83          H95   1.082       .  S
C84          H96   1.082       .  S
C85          C86   1.369       .  A
C85          H97   1.082       .  S
C86          H98   1.082       .  S
C87          C88   1.377       .  A
C87          H99   1.082       .  S
C88         H100   1.083       .  S
C89          C90   1.375       .  A
C89         H101   1.082       .  S
C90         H102   1.082       .  S
C91        C4965   1.490       .  S
C92        C4901   1.499       .  S
C93        C4850   1.484       .  S
C94        C4866   1.481       .  S
N105        C110   1.350       .  A
N105        C109   1.350       .  A
N105        H137   1.043       .  S
N106        C113   1.350       .  A
N106        C114   1.352       .  A
N107        C112   1.348       .  A
N107        C111   1.350       .  A
N107        H138   1.042       .  S
N108        C115   1.351       .  A
N108        C116   1.350       .  A
C109        C117   1.388       .  A
C109        C125   1.414       .  A
C110        C126   1.414       .  A
C110        C118   1.387       .  A
C111        C119   1.386       .  A
C111        C128   1.411       .  A
C112        C127   1.414       .  A
C112        C120   1.390       .  A
C113        C125   1.414       .  A
C113        C121   1.387       .  A
C114        C128   1.412       .  A
C114        C122   1.385       .  A
C115        C123   1.387       .  A
C115        C126   1.416       .  A
C116        C124   1.386       .  A
C116        C127   1.413       .  A
C117        C118   1.375       .  A
C117        H129   1.082       .  S
C118        H130   1.082       .  S
C119        C120   1.368       .  A
C119        H131   1.082       .  S
C120        H132   1.082       .  S
C121        C122   1.373       .  A
C121        H133   1.082       .  S
C122        H134   1.082       .  S
C123        C124   1.376       .  A
C123        H135   1.082       .  S
C124        H136   1.082       .  S
C125       C5013   1.483       .  S
C126       C4949   1.490       .  S
C127       C4834   1.478       .  S
C128       C4821   1.485       .  S
N139        C144   1.353       .  A
N139        C143   1.351       .  A
N139        H171   1.039       .  S
N140        C147   1.350       .  A
N140        C148   1.351       .  A
N141        C146   1.349       .  A
N141        C145   1.354       .  A
N141        H172   1.037       .  S
N142        C149   1.353       .  A
N142        C150   1.352       .  A
C143        C151   1.386       .  A
C143        C159   1.410       .  A
C144        C160   1.415       .  A
C144        C152   1.388       .  A
C145        C153   1.385       .  A
C145        C162   1.411       .  A
C146        C161   1.415       .  A
C146        C154   1.390       .  A
C147        C159   1.412       .  A
C147        C155   1.387       .  A
C148        C162   1.412       .  A
C148        C156   1.385       .  A
C149        C157   1.386       .  A
C149        C160   1.418       .  A
C150        C158   1.386       .  A
C150        C161   1.416       .  A
C151        C152   1.378       .  A
C151        H163   1.082       .  S
C152        H164   1.082       .  S
C153        C154   1.372       .  A
C153        H165   1.082       .  S
C154        H166   1.082       .  S
C155        C156   1.375       .  A
C155        H167   1.082       .  S
C156        H168   1.082       .  S
C157        C158   1.379       .  A
C157        H169   1.082       .  S
C158        H170   1.082       .  S
C159       C5061   1.488       .  S
C160       C4885   1.500       .  S
C161       C4789   1.485       .  S
C162       C4802   1.488       .  S
N173        C178   1.351       .  A
N173        C177   1.355       .  A
N173        H205   1.032       .  S
N174        C181   1.351       .  A
N174        C182   1.348       .  A
N175        C180   1.355       .  A
N175        C179   1.353       .  A
N175        H206   1.044       .  S
N176        C183   1.353       .  A
N176        C184   1.356       .  A
C177        C185   1.388       .  A
C177        C193   1.419       .  A
C178        C194   1.418       .  A
C178        C186   1.389       .  A
C179        C187   1.384       .  A
C179        C196   1.410       .  A
C180        C195   1.413       .  A
C180        C188   1.383       .  A
C181        C193   1.417       .  A
C181        C189   1.387       .  A
C182        C196   1.413       .  A
C182        C190   1.387       .  A
C183        C191   1.385       .  A
C183        C194   1.418       .  A
C184        C192   1.389       .  A
C184        C195   1.426       .  A
C185        C186   1.372       .  A
C185        H197   1.082       .  S
C186        H198   1.082       .  S
C187        C188   1.378       .  A
C187        H199   1.082       .  S
C188        H200   1.081       .  S
C189        C190   1.378       .  A
C189        H201   1.082       .  S
C190        H202   1.082       .  S
C191        C192   1.369       .  A
C191        H203   1.082       .  S
C192        H204   1.081       .  S
C193       C4933   1.494       .  S
C194       C5029   1.489       .  S
C195       C4757   1.541       .  S
C196       C4770   1.489       .  S
N207        C212   1.351       .  A
N207        C211   1.352       .  A
N207        H239   1.038       .  S
N208        C215   1.349       .  A
N208        C216   1.349       .  A
N209        C214   1.352       .  A
N209        C213   1.351       .  A
N209        H240   1.038       .  S
N210        C217   1.352       .  A
N210        C218   1.353       .  A
C211        C219   1.387       .  A
C211        C227   1.411       .  A
C212        C228   1.412       .  A
C212        C220   1.388       .  A
C213        C221   1.387       .  A
C213        C230   1.410       .  A
C214        C229   1.409       .  A
C214        C222   1.387       .  A
C215        C227   1.410       .  A
C215        C223   1.386       .  A
C216        C230   1.409       .  A
C216        C224   1.386       .  A
C217        C225   1.387       .  A
C217        C228   1.416       .  A
C218        C226   1.386       .  A
C218        C229   1.416       .  A
C219        C220   1.373       .  A
C219        H231   1.082       .  S
C220        H232   1.082       .  S
C221        C222   1.370       .  A
C221        H233   1.082       .  S
C222        H234   1.082       .  S
C223        C224   1.376       .  A
C223        H235   1.082       .  S
C224        H236   1.082       .  S
C225        C226   1.378       .  A
C225        H237   1.082       .  S
C226        H238   1.082       .  S
C227       C5045   1.487       .  S
C228       C4997   1.486       .  S
C229       C4725   1.490       .  S
C230       C4738   1.482       .  S
N241        C246   1.355       .  A
N241        C245   1.356       .  A
N241        H273   1.037       .  S
N242        C249   1.353       .  A
N242        C250   1.353       .  A
N243        C248   1.351       .  A
N243        C247   1.351       .  A
N243        H274   1.034       .  S
N244        C251   1.350       .  A
N244        C252   1.351       .  A
C245        C253   1.386       .  A
C245        C261   1.419       .  A
C246        C262   1.420       .  A
C246        C254   1.388       .  A
C247        C255   1.390       .  A
C247        C264   1.413       .  A
C248        C263   1.410       .  A
C248        C256   1.386       .  A
C249        C261   1.419       .  A
C249        C257   1.387       .  A
C250        C264   1.416       .  A
C250        C258   1.385       .  A
C251        C259   1.387       .  A
C251        C262   1.415       .  A
C252        C260   1.385       .  A
C252        C263   1.413       .  A
C253        C254   1.377       .  A
C253        H265   1.082       .  S
C254        H266   1.082       .  S
C255        C256   1.364       .  A
C255        H267   1.081       .  S
C256        H268   1.082       .  S
C257        C258   1.376       .  A
C257        H269   1.082       .  S
C258        H270   1.082       .  S
C259        C260   1.379       .  A
C259        H271   1.082       .  S
C260        H272   1.082       .  S
C261       C4917   1.502       .  S
C262       C4981   1.492       .  S
C263       C4709   1.485       .  S
C264       C4690   1.487       .  S
O275        C291   1.277       .  A
O275       Zn281   2.023       .  S
C276        O292   1.273       .  A
C276        O289   1.276       .  A
C276       C4661   1.486       .  S
O277        C290   1.277       .  A
O277       Cd284   2.102       .  S
O278        C296   1.265       .  A
O278       Cd287   2.006       .  S
O279        C293   1.264       .  A
O279       Cd283   2.028       .  S
O280        C291   1.263       .  A
O280       Cd283   2.009       .  S
Zn281       O292   2.005       .  S
Zn281       O294   1.960       .  S
Zn281       O286   1.904       .  S
O282        C293   1.276       .  A
O282       Cd287   2.069       .  S
Cd283       O285   1.993       .  S
Cd283       O286   1.956       .  S
Cd284       O288   2.098       .  S
Cd284       O297   2.084       .  S
Cd284       O286   2.023       .  S
O285        C295   1.263       .  A
O286       Cd287   1.967       .  S
Cd287       O289   2.057       .  S
O288        C295   1.278       .  A
C290        O294   1.265       .  A
C290       C4626   1.470       .  S
C291       C4610   1.489       .  S
C293       C4597   1.495       .  S
C295       C4674   1.459       .  S
C296        O297   1.276       .  A
C296       C4645   1.457       .  S
O298        C314   1.269       .  A
O298       Zn304   2.005       .  S
C299        O315   1.273       .  A
C299        O312   1.274       .  A
C299       C4498   1.499       .  S
O300        C313   1.278       .  A
O300       Cd307   2.100       .  S
O301        C319   1.268       .  A
O301       Cd310   2.017       .  S
O302        C316   1.277       .  A
O302       Cd306   2.094       .  S
O303        C314   1.280       .  A
O303       Cd306   2.080       .  S
Zn304       O315   1.992       .  S
Zn304       O317   1.951       .  S
Zn304       O309   1.902       .  S
O305        C316   1.277       .  A
O305       Cd310   2.066       .  S
Cd306       O308   2.021       .  S
Cd306       O309   1.983       .  S
Cd307       O311   2.105       .  S
Cd307       O320   2.101       .  S
Cd307       O309   2.024       .  S
O308        C318   1.265       .  A
O309       Cd310   1.968       .  S
Cd310       O312   2.082       .  S
O311        C318   1.280       .  A
C313        O317   1.265       .  A
C313       C4565   1.466       .  S
C314       C4514   1.503       .  S
C316       C4581   1.506       .  S
C318       C4533   1.474       .  S
C319        O320   1.278       .  A
C319       C4549   1.463       .  S
O321        C337   1.273       .  A
O321       Zn327   2.004       .  S
C322        O338   1.276       .  A
C322        O335   1.267       .  A
C322       C4450   1.499       .  S
O323        C336   1.281       .  A
O323       Cd330   2.120       .  S
O324        C342   1.267       .  A
O324       Cd333   2.011       .  S
O325        C339   1.272       .  A
O325       Cd329   2.046       .  S
O326        C337   1.272       .  A
O326       Cd329   2.034       .  S
Zn327       O338   2.033       .  S
Zn327       O340   1.942       .  S
Zn327       O332   1.911       .  S
O328        C339   1.267       .  A
O328       Cd333   2.040       .  S
Cd329       O331   2.025       .  S
Cd329       O332   1.970       .  S
Cd330       O334   2.126       .  S
Cd330       O343   2.107       .  S
Cd330       O332   2.030       .  S
O331        C341   1.267       .  A
O332       Cd333   1.974       .  S
Cd333       O335   2.049       .  S
O334        C341   1.281       .  A
C336        O340   1.263       .  A
C336       C4466   1.472       .  S
C337       C4741   1.480       .  S
C339       C4434   1.484       .  S
C341       C4482   1.477       .  S
C342        O343   1.280       .  A
C342       C4418   1.463       .  S
O344        C360   1.266       .  A
O344       Zn350   1.986       .  S
C345        O361   1.267       .  A
C345        O358   1.277       .  A
C345       C4338   1.495       .  S
O346        C359   1.276       .  A
O346       Cd353   2.097       .  S
O347        C365   1.267       .  A
O347       Cd356   2.009       .  S
O348        C362   1.269       .  A
O348       Cd352   2.038   1_554  S
O349        C360   1.272       .  A
O349       Cd352   2.052       .  S
Zn350       O361   1.978   1_556  S
Zn350       O363   1.934       .  S
Zn350       O355   1.896   1_556  S
O351        C362   1.277       .  A
O351       Cd356   2.075       .  S
Cd352       O354   2.014       .  S
Cd352       O355   1.967   1_556  S
Cd353       O357   2.110       .  S
Cd353       O366   2.107   1_556  S
Cd353       O355   2.029   1_556  S
O354        C364   1.266       .  A
O355       Cd356   1.970       .  S
Cd356       O358   2.077       .  S
O357        C364   1.280       .  A
C359        O363   1.263       .  A
C359       C4869   1.458       .  S
C360       C4354   1.489       .  S
C362       C4386   1.487       .  S
C364       C4370   1.468       .  S
C365        O366   1.279       .  A
C365       C4402   1.465       .  S
O367        C383   1.270       .  A
O367       Zn373   2.007   1_455  S
C368        O384   1.274       .  A
C368        O381   1.276       .  A
C368       C4290   1.487       .  S
O369        C382   1.280       .  A
O369       Cd376   2.118   1_554  S
O370        C388   1.269       .  A
O370       Cd379   2.027       .  S
O371        C385   1.273       .  A
O371       Cd375   2.064       .  S
O372        C383   1.275       .  A
O372       Cd375   2.057   1_554  S
Zn373       O384   2.005       .  S
Zn373       O386   1.966       .  S
Zn373       O378   1.912   1_554  S
O374        C385   1.276       .  A
O374       Cd379   2.072   1_455  S
Cd375       O377   2.005       .  S
Cd375       O378   1.962   1_455  S
Cd376       O380   2.106       .  S
Cd376       O389   2.102       .  S
Cd376       O378   2.028       .  S
O377        C387   1.267       .  A
O378       Cd379   1.969       .  S
Cd379       O381   2.060   1_556  S
O380        C387   1.279   1_655  A
C382        O386   1.266       .  A
C382       C4322   1.489       .  S
C383       C4258   1.498       .  S
C385       C4274   1.493       .  S
C387       C4306   1.467       .  S
C388        O389   1.279       .  A
C388       C4773   1.472       .  S
O390        C406   1.270       .  A
O390       Zn396   1.996       .  S
C391        O407   1.272       .  A
C391        O404   1.271       .  A
C391       C4226   1.494       .  S
O392        C405   1.275       .  A
O392       Cd399   2.092       .  S
O393        C411   1.267       .  A
O393       Cd402   2.020       .  S
O394        C408   1.275       .  A
O394       Cd398   2.066   1_565  S
O395        C406   1.275       .  A
O395       Cd398   2.060       .  S
Zn396       O407   1.993   1_545  S
Zn396       O409   1.943       .  S
Zn396       O401   1.903       .  S
O397        C408   1.270       .  A
O397       Cd402   2.048       .  S
Cd398       O400   2.019       .  S
Cd398       O401   1.976       .  S
Cd399       O403   2.099       .  S
Cd399       O412   2.090   1_545  S
Cd399       O401   2.030       .  S
O400        C410   1.268       .  A
O401       Cd402   1.961   1_545  S
Cd402       O404   2.060       .  S
O403        C410   1.279       .  A
C405        O409   1.265       .  A
C405       C4213   1.466       .  S
C406       C4245   1.483       .  S
C408       C4853   1.491       .  S
C410       C4181   1.464       .  S
C411        O412   1.276       .  A
C411       C4194   1.465       .  S
O413        C429   1.277       .  A
O413       Zn419   2.042       .  S
C414        O430   1.276       .  A
C414        O427   1.274       .  A
C414       C4130   1.494       .  S
O415        C428   1.280       .  A
O415       Cd422   2.110       .  S
O416        C434   1.269       .  A
O416       Cd425   2.035       .  S
O417        C431   1.268       .  A
O417       Cd421   2.019       .  S
O418        C429   1.268       .  A
O418       Cd421   2.036       .  S
Zn419       O430   2.035       .  S
Zn419       O432   1.958       .  S
Zn419       O424   1.919       .  S
O420        C431   1.272       .  A
O420       Cd425   2.071       .  S
Cd421       O423   1.988       .  S
Cd421       O424   1.959       .  S
Cd422       O426   2.120       .  S
Cd422       O435   2.108       .  S
Cd422       O424   2.032       .  S
O423        C433   1.263       .  A
O424       Cd425   1.972       .  S
Cd425       O427   2.041       .  S
O426        C433   1.280       .  A
C428        O432   1.267       .  A
C428       C4114   1.466       .  S
C429       C4146   1.482       .  S
C431       C4162   1.486       .  S
C433       C4098   1.469       .  S
C434        O435   1.279       .  A
C434       C4805   1.471       .  S
O436        C452   1.274       .  A
O436       Zn442   2.004   1_455  S
C437        O453   1.272       .  A
C437        O450   1.274       .  A
C437       C4034   1.497       .  S
O438        C451   1.279       .  A
O438       Cd445   2.110       .  S
O439        C457   1.268       .  A
O439       Cd448   2.025       .  S
O440        C454   1.268       .  A
O440       Cd444   2.034       .  S
O441        C452   1.268       .  A
O441       Cd444   2.045   1_455  S
Zn442       O453   2.026       .  S
Zn442       O455   1.952   1_655  S
Zn442       O447   1.918       .  S
O443        C454   1.273       .  A
O443       Cd448   2.061       .  S
Cd444       O446   2.018   1_655  S
Cd444       O447   1.966       .  S
Cd445       O449   2.118       .  S
Cd445       O458   2.111   1_455  S
Cd445       O447   2.029   1_455  S
O446        C456   1.266       .  A
O447       Cd448   1.979       .  S
Cd448       O450   2.045       .  S
O449        C456   1.279       .  A
C451        O455   1.266       .  A
C451       C4082   1.466       .  S
C452       C4066   1.492       .  S
C454       C4837   1.482       .  S
C456       C4021   1.470       .  S
C457        O458   1.280       .  A
C457       C4050   1.472       .  S
O459        C475   1.271       .  A
O459       Zn465   2.000       .  S
C460        O476   1.271       .  A
C460        O473   1.278       .  A
C460       C3970   1.503       .  S
O461        C474   1.282       .  A
O461       Cd468   2.129       .  S
O462        C480   1.265       .  A
O462       Cd471   2.004   1_565  S
O463        C477   1.269       .  A
O463       Cd467   2.045   1_554  S
O464        C475   1.273       .  A
O464       Cd467   2.059       .  S
Zn465       O476   2.013   1_546  S
Zn465       O478   1.951   1_545  S
Zn465       O470   1.901       .  S
O466        C477   1.277       .  A
O466       Cd471   2.080       .  S
Cd467       O469   1.999       .  S
Cd467       O470   1.970       .  S
Cd468       O472   2.128   1_565  S
Cd468       O481   2.131   1_556  S
Cd468       O470   2.029   1_565  S
O469        C479   1.263       .  A
O470       Cd471   1.976   1_556  S
Cd471       O473   2.074   1_545  S
O472        C479   1.282       .  A
C474        O478   1.265       .  A
C474       C4722   1.474       .  S
C475       C3954   1.484       .  S
C477       C3941   1.498       .  S
C479       C4002   1.470       .  S
C480        O481   1.283       .  A
C480       C3986   1.475       .  S
C482       C3909   1.488       .  S
C482        N483   1.357       .  A
C482        N487   1.360       .  A
N483        C484   1.359       .  A
C484       C3890   1.495       .  S
C484        N485   1.356       .  A
N485        C486   1.360       .  A
C486       C3925   1.495       .  S
C486        N487   1.360       .  A
N488        C493   1.354       .  A
N488        C492   1.352       .  A
N488        H520   1.041       .  S
N489        C496   1.353       .  A
N489        C497   1.353       .  A
N490        C495   1.351       .  A
N490        C494   1.353       .  A
N490        H521   1.038       .  S
N491        C498   1.354       .  A
N491        C499   1.352       .  A
C492        C500   1.387       .  A
C492        C508   1.414       .  A
C493        C509   1.415       .  A
C493        C501   1.386       .  A
C494        C502   1.387       .  A
C494        C511   1.414       .  A
C495        C510   1.415       .  A
C495        C503   1.388       .  A
C496        C508   1.417       .  A
C496        C504   1.386       .  A
C497        C511   1.419       .  A
C497        C505   1.387       .  A
C498        C506   1.385       .  A
C498        C509   1.416       .  A
C499        C507   1.387       .  A
C499        C510   1.418       .  A
C500        C501   1.376       .  A
C500        H512   1.082       .  S
C501        H513   1.082       .  S
C502        C503   1.374       .  A
C502        H514   1.082       .  S
C503        H515   1.082       .  S
C504        C505   1.379       .  A
C504        H516   1.082       .  S
C505        H517   1.082       .  S
C506        C507   1.380       .  A
C506        H518   1.082       .  S
C507        H519   1.082       .  S
C508       C3906   1.498       .  S
C509       C3874   1.502       .  S
C510       C5205   1.490       .  S
C511       C4629   1.493       .  S
C522       C3826   1.490       .  S
C522        N523   1.358       .  A
C522        N527   1.356       .  A
N523        C524   1.362       .  A
C524       C3858   1.499   1_565  S
C524        N525   1.368       .  A
N525        C526   1.366       .  A
C526       C3842   1.503       .  S
C526        N527   1.353       .  A
N528        C533   1.352       .  A
N528        C532   1.355       .  A
N528        H560   1.045       .  S
N529        C536   1.351       .  A
N529        C537   1.347       .  A
N530        C535   1.355       .  A
N530        C534   1.356       .  A
N530        H561   1.039       .  S
N531        C538   1.350       .  A
N531        C539   1.341       .  A
C532        C540   1.383       .  A
C532        C548   1.399       .  A
C533        C549   1.407       .  A
C533        C541   1.387       .  A
C534        C542   1.388       .  A
C534        C551   1.417       .  A
C535        C550   1.415       .  A
C535        C543   1.387       .  A
C536        C548   1.412       .  A
C536        C544   1.384       .  A
C537        C551   1.415       .  A
C537        C545   1.388       .  A
C538        C546   1.385       .  A
C538        C549   1.414       .  A
C539        C547   1.389       .  A
C539        C550   1.410       .  A
C540        C541   1.367       .  A
C540        H552   1.082       .  S
C541        H553   1.083       .  S
C542        C543   1.365       .  A
C542        H554   1.082       .  S
C543        H555   1.082       .  S
C544        C545   1.384       .  A
C544        H556   1.082       .  S
C545        H557   1.082       .  S
C546        C547   1.382       .  A
C546        H558   1.082       .  S
C547        H559   1.082       .  S
C548       C3810   1.486       .  S
C549       C3829   1.503       .  S
C550       C3797   1.475       .  S
C551       C4117   1.487       .  S
N562        C567   1.354       .  A
N562        C566   1.354       .  A
N562        H594   1.041       .  S
N563        C570   1.353       .  A
N563        C571   1.352       .  A
N564        C569   1.351       .  A
N564        C568   1.349       .  A
N564        H595   1.039       .  S
N565        C572   1.349       .  A
N565        C573   1.351       .  A
C566        C574   1.387       .  A
C566        C582   1.417       .  A
C567        C583   1.417       .  A
C567        C575   1.387       .  A
C568        C576   1.388       .  A
C568        C585   1.410       .  A
C569        C584   1.407       .  A
C569        C577   1.386       .  A
C570        C582   1.416       .  A
C570        C578   1.386       .  A
C571        C585   1.417       .  A
C571        C579   1.387       .  A
C572        C580   1.387       .  A
C572        C583   1.412       .  A
C573        C581   1.385       .  A
C573        C584   1.410       .  A
C574        C575   1.377       .  A
C574        H586   1.082       .  S
C575        H587   1.082       .  S
C576        C577   1.369       .  A
C576        H588   1.082       .  S
C577        H589   1.082       .  S
C578        C579   1.379       .  A
C578        H590   1.082       .  S
C579        H591   1.082       .  S
C580        C581   1.375       .  A
C580        H592   1.082       .  S
C581        H593   1.082       .  S
C582       C3845   1.498       .  S
C583       C3922   1.491       .  S
C584       C4405   1.485       .  S
C585       C3989   1.485       .  S
C596       C3778   1.482       .  S
C596        N597   1.353       .  A
C596        N601   1.363       .  A
N597        C598   1.355       .  A
C598       C3746   1.505       .  S
C598        N599   1.360       .  A
N599        C600   1.368   1_565  A
C600       C3765   1.510       .  S
C600        N601   1.364   1_545  A
C602       C3730   1.504       .  S
C602        N603   1.364       .  A
C602        N607   1.360       .  A
N603        C604   1.360       .  A
C604       C3813   1.500       .  S
C604        N605   1.364       .  A
N605        C606   1.359       .  A
C606       C3877   1.501       .  S
C606        N607   1.360       .  A
N608        C613   1.353       .  A
N608        C612   1.356       .  A
N608        H640   1.030       .  S
N609        C616   1.351       .  A
N609        C617   1.350       .  A
N610        C615   1.353       .  A
N610        C614   1.350       .  A
N610        H641   1.036       .  S
N611        C618   1.350       .  A
N611        C619   1.351       .  A
C612        C620   1.387       .  A
C612        C628   1.420       .  A
C613        C629   1.422       .  A
C613        C621   1.389       .  A
C614        C622   1.389       .  A
C614        C631   1.411       .  A
C615        C630   1.409       .  A
C615        C623   1.386       .  A
C616        C628   1.416       .  A
C616        C624   1.387       .  A
C617        C631   1.411       .  A
C617        C625   1.385       .  A
C618        C626   1.387       .  A
C618        C629   1.415       .  A
C619        C627   1.385       .  A
C619        C630   1.412       .  A
C620        C621   1.376       .  A
C620        H632   1.082       .  S
C621        H633   1.082       .  S
C622        C623   1.367       .  A
C622        H634   1.082       .  S
C623        H635   1.082       .  S
C624        C625   1.375       .  A
C624        H636   1.082       .  S
C625        H637   1.082       .  S
C626        C627   1.373       .  A
C626        H638   1.082       .  S
C627        H639   1.082       .  S
C628       C3733   1.494       .  S
C629       C3749   1.486       .  S
C630       C4229   1.484       .  S
C631       C4437   1.479       .  S
N642        C647   1.355       .  A
N642        C646   1.353       .  A
N642        H674   1.038       .  S
N643        C650   1.350       .  A
N643        C651   1.351       .  A
N644        C649   1.350       .  A
N644        C648   1.350       .  A
N644        H675   1.037       .  S
N645        C652   1.352       .  A
N645        C653   1.350       .  A
C646        C654   1.386       .  A
C646        C662   1.413       .  A
C647        C663   1.419       .  A
C647        C655   1.388       .  A
C648        C656   1.386       .  A
C648        C665   1.406       .  A
C649        C664   1.410       .  A
C649        C657   1.389       .  A
C650        C662   1.413       .  A
C650        C658   1.387       .  A
C651        C665   1.413       .  A
C651        C659   1.386       .  A
C652        C660   1.385       .  A
C652        C663   1.416       .  A
C653        C661   1.386       .  A
C653        C664   1.414       .  A
C654        C655   1.375       .  A
C654        H666   1.082       .  S
C655        H667   1.082       .  S
C656        C657   1.371       .  A
C656        H668   1.082       .  S
C657        H669   1.082       .  S
C658        C659   1.374       .  A
C658        H670   1.082       .  S
C659        H671   1.083       .  S
C660        C661   1.380       .  A
C660        H672   1.082       .  S
C661        H673   1.082       .  S
C662       C3762   1.487       .  S
C663       C3861   1.504       .  S
C664       C5154   1.483       .  S
C665       C4562   1.481       .  S
N676        C681   1.353       .  A
N676        C680   1.353       .  A
N676        H708   1.037       .  S
N677        C684   1.350       .  A
N677        C685   1.350       .  A
N678        C683   1.353       .  A
N678        C682   1.351       .  A
N678        H709   1.036       .  S
N679        C686   1.350       .  A
N679        C687   1.351       .  A
C680        C688   1.386       .  A
C680        C696   1.414       .  A
C681        C697   1.415       .  A
C681        C689   1.388       .  A
C682        C690   1.388       .  A
C682        C699   1.411       .  A
C683        C698   1.410       .  A
C683        C691   1.386       .  A
C684        C696   1.412       .  A
C684        C692   1.387       .  A
C685        C699   1.410       .  A
C685        C693   1.386       .  A
C686        C694   1.388       .  A
C686        C697   1.414       .  A
C687        C695   1.384       .  A
C687        C698   1.410       .  A
C688        C689   1.376       .  A
C688        H700   1.082       .  S
C689        H701   1.082       .  S
C690        C691   1.368       .  A
C690        H702   1.082       .  S
C691        H703   1.082       .  S
C692        C693   1.372       .  A
C692        H704   1.082       .  S
C693        H705   1.082       .  S
C694        C695   1.374       .  A
C694        H706   1.082       .  S
C695        H707   1.082       .  S
C696       C3893   1.486       .  S
C697       C3781   1.490       .  S
C698       C3714   1.486       .  S
C699       C4069   1.479       .  S
O710        C726   1.278       .  A
O710       Zn716   2.020       .  S
C711        O727   1.274       .  A
C711        O724   1.273       .  A
C711       C4818   1.494       .  S
O712        C725   1.276       .  A
O712       Cd719   2.093       .  S
O713        C731   1.267       .  A
O713       Cd722   2.013       .  S
O714        C728   1.268       .  A
O714       Cd718   2.047   1_565  S
O715        C726   1.268       .  A
O715       Cd718   2.034       .  S
Zn716       O727   2.035   1_545  S
Zn716       O729   1.967       .  S
Zn716       O721   1.912       .  S
O717        C728   1.272       .  A
O717       Cd722   2.041       .  S
Cd718       O720   2.001       .  S
Cd718       O721   1.969       .  S
Cd719       O723   2.101       .  S
Cd719       O732   2.095   1_545  S
Cd719       O721   2.027       .  S
O720        C730   1.265       .  A
O721       Cd722   1.956   1_545  S
Cd722       O724   2.040       .  S
O723        C730   1.277       .  A
C725        O729   1.268       .  A
C725       C3653   1.463       .  S
C726       C3698   1.488       .  S
C728       C3794   1.490       .  S
C730       C3666   1.462       .  S
C731        O732   1.278       .  A
C731       C3682   1.468       .  S
O733        C749   1.273       .  A
O733       Zn739   2.001       .  S
C734        O750   1.274       .  A
C734        O747   1.277       .  A
C734       C3634   1.510       .  S
O735        C748   1.276       .  A
O735       Cd742   2.097       .  S
O736        C754   1.269       .  A
O736       Cd745   2.012   1_554  S
O737        C751   1.270       .  A
O737       Cd741   2.052       .  S
O738        C749   1.274       .  A
O738       Cd741   2.042       .  S
Zn739       O750   2.038   1_556  S
Zn739       O752   1.966   1_556  S
Zn739       O744   1.910       .  S
O740        C751   1.277       .  A
O740       Cd745   2.079       .  S
Cd741       O743   2.029       .  S
Cd741       O744   1.976       .  S
Cd742       O746   2.105   1_554  S
Cd742       O755   2.092       .  S
Cd742       O744   2.027   1_554  S
O743        C753   1.266       .  A
O744       Cd745   1.974       .  S
Cd745       O747   2.077   1_556  S
O746        C753   1.278       .  A
C748        O752   1.267       .  A
C748       C3570   1.467       .  S
C749       C4706   1.472       .  S
C751       C3621   1.493       .  S
C753       C3586   1.470       .  S
C754        O755   1.278       .  A
C754       C3605   1.463       .  S
C756       C3525   1.504       .  S
C756        N757   1.352       .  A
C756        N761   1.363       .  A
N757        C758   1.358       .  A
C758       C3554   1.486       .  S
C758        N759   1.363       .  A
N759        C760   1.364       .  A
C760       C3538   1.503       .  S
C760        N761   1.366       .  A
C762       C3477   1.498       .  S
C762        N763   1.356       .  A
C762        N767   1.358       .  A
N763        C764   1.359       .  A
C764       C3490   1.493   1_556  S
C764        N765   1.368       .  A
N765        C766   1.367       .  A
C766       C3509   1.507       .  S
C766        N767   1.362       .  A
C768       C3458   1.495       .  S
C768        N769   1.361       .  A
C768        N773   1.360       .  A
N769        C770   1.362       .  A
C770       C3429   1.489       .  S
C770        N771   1.360       .  A
N771        C772   1.356       .  A
C772       C3442   1.507       .  S
C772        N773   1.360       .  A
C774       C3394   1.503       .  S
C774        N775   1.358       .  A
C774        N779   1.358       .  A
N775        C776   1.356       .  A
C776       C3410   1.495   1_556  S
C776        N777   1.362       .  A
N777        C778   1.363       .  A
C778       C3381   1.492       .  S
C778        N779   1.363       .  A
N780        C785   1.354       .  A
N780        C784   1.355       .  A
N780        H812   1.037       .  S
N781        C788   1.352       .  A
N781        C789   1.351       .  A
N782        C787   1.351       .  A
N782        C786   1.351       .  A
N782        H813   1.036       .  S
N783        C790   1.354       .  A
N783        C791   1.354       .  A
C784        C792   1.386       .  A
C784        C800   1.417       .  A
C785        C801   1.421       .  A
C785        C793   1.388       .  A
C786        C794   1.388       .  A
C786        C803   1.413       .  A
C787        C802   1.412       .  A
C787        C795   1.387       .  A
C788        C800   1.414       .  A
C788        C796   1.386       .  A
C789        C803   1.416       .  A
C789        C797   1.386       .  A
C790        C798   1.386       .  A
C790        C801   1.419       .  A
C791        C799   1.385       .  A
C791        C802   1.417       .  A
C792        C793   1.378       .  A
C792        H804   1.082       .  S
C793        H805   1.082       .  S
C794        C795   1.373       .  A
C794        H806   1.082       .  S
C795        H807   1.082       .  S
C796        C797   1.377       .  A
C796        H808   1.082       .  S
C797        H809   1.082       .  S
C798        C799   1.379       .  A
C798        H810   1.082       .  S
C799        H811   1.082       .  S
C800       C3445   1.496       .  S
C801       C3378   1.502       .  S
C802       C4373   1.491       .  S
C803       C4453   1.488       .  S
N814        C819   1.352       .  A
N814        C818   1.352       .  A
N814        H846   1.040       .  S
N815        C822   1.351       .  A
N815        C823   1.351       .  A
N816        C821   1.352       .  A
N816        C820   1.353       .  A
N816        H847   1.037       .  S
N817        C824   1.352       .  A
N817        C825   1.351       .  A
C818        C826   1.387       .  A
C818        C834   1.414       .  A
C819        C835   1.412       .  A
C819        C827   1.387       .  A
C820        C828   1.387       .  A
C820        C837   1.414       .  A
C821        C836   1.415       .  A
C821        C829   1.388       .  A
C822        C834   1.415       .  A
C822        C830   1.386       .  A
C823        C837   1.413       .  A
C823        C831   1.386       .  A
C824        C832   1.385       .  A
C824        C835   1.413       .  A
C825        C833   1.387       .  A
C825        C836   1.415       .  A
C826        C827   1.376       .  A
C826        H838   1.082       .  S
C827        H839   1.082       .  S
C828        C829   1.374       .  A
C828        H840   1.082       .  S
C829        H841   1.082       .  S
C830        C831   1.377       .  A
C830        H842   1.082       .  S
C831        H843   1.082       .  S
C832        C833   1.379       .  A
C832        H844   1.082       .  S
C833        H845   1.082       .  S
C834       C3426   1.493       .  S
C835       C3474   1.493       .  S
C836       C3618   1.487       .  S
C837       C3362   1.487       .  S
N848        C853   1.354       .  A
N848        C852   1.354       .  A
N848        H880   1.039       .  S
N849        C856   1.350       .  A
N849        C857   1.351       .  A
N850        C855   1.351       .  A
N850        C854   1.351       .  A
N850        H881   1.039       .  S
N851        C858   1.351       .  A
N851        C859   1.350       .  A
C852        C860   1.387       .  A
C852        C868   1.418       .  A
C853        C869   1.417       .  A
C853        C861   1.387       .  A
C854        C862   1.387       .  A
C854        C871   1.412       .  A
C855        C870   1.413       .  A
C855        C863   1.388       .  A
C856        C868   1.413       .  A
C856        C864   1.387       .  A
C857        C871   1.412       .  A
C857        C865   1.386       .  A
C858        C866   1.386       .  A
C858        C869   1.413       .  A
C859        C867   1.386       .  A
C859        C870   1.411       .  A
C860        C861   1.376       .  A
C860        H872   1.082       .  S
C861        H873   1.082       .  S
C862        C863   1.374       .  A
C862        H874   1.082       .  S
C863        H875   1.082       .  S
C864        C865   1.377       .  A
C864        H876   1.082       .  S
C865        H877   1.082       .  S
C866        C867   1.376       .  A
C866        H878   1.082       .  S
C867        H879   1.083       .  S
C868       C3541   1.495       .  S
C869       C3461   1.493       .  S
C870       C5221   1.484       .  S
C871       C4530   1.486       .  S
N882        C887   1.354       .  A
N882        C886   1.356       .  A
N882        H914   1.038       .  S
N883        C890   1.353       .  A
N883        C891   1.353       .  A
N884        C889   1.352       .  A
N884        C888   1.349       .  A
N884        H915   1.037       .  S
N885        C892   1.351       .  A
N885        C893   1.352       .  A
C886        C894   1.387       .  A
C886        C902   1.420       .  A
C887        C903   1.417       .  A
C887        C895   1.387       .  A
C888        C896   1.387       .  A
C888        C905   1.409       .  A
C889        C904   1.411       .  A
C889        C897   1.388       .  A
C890        C902   1.419       .  A
C890        C898   1.388       .  A
C891        C905   1.415       .  A
C891        C899   1.385       .  A
C892        C900   1.388       .  A
C892        C903   1.418       .  A
C893        C901   1.385       .  A
C893        C904   1.413       .  A
C894        C895   1.373       .  A
C894        H906   1.080       .  S
C895        H907   1.082       .  S
C896        C897   1.369       .  A
C896        H908   1.082       .  S
C897        H909   1.082       .  S
C898        C899   1.374       .  A
C898        H910   1.081       .  S
C899        H911   1.083       .  S
C900        C901   1.374       .  A
C900        H912   1.082       .  S
C901        H913   1.083       .  S
C902       C3413   1.498       .  S
C903       C3493   1.493       .  S
C904       C5141   1.487       .  S
C905       C4677   1.483       .  S
N916        C921   1.355       .  A
N916        C920   1.352       .  A
N916        H948   1.039       .  S
N917        C924   1.352       .  A
N917        C925   1.353       .  A
N918        C923   1.352       .  A
N918        C922   1.354       .  A
N918        H949   1.036       .  S
N919        C926   1.352       .  A
N919        C927   1.350       .  A
C920        C928   1.388       .  A
C920        C936   1.415       .  A
C921        C937   1.414       .  A
C921        C929   1.386       .  A
C922        C930   1.387       .  A
C922        C939   1.416       .  A
C923        C938   1.416       .  A
C923        C931   1.388       .  A
C924        C936   1.415       .  A
C924        C932   1.386       .  A
C925        C939   1.416       .  A
C925        C933   1.386       .  A
C926        C934   1.385       .  A
C926        C937   1.414       .  A
C927        C935   1.387       .  A
C927        C938   1.414       .  A
C928        C929   1.376       .  A
C928        H940   1.082       .  S
C929        H941   1.082       .  S
C930        C931   1.372       .  A
C930        H942   1.082       .  S
C931        H943   1.082       .  S
C932        C933   1.377       .  A
C932        H944   1.082       .  S
C933        H945   1.082       .  S
C934        C935   1.377       .  A
C934        H946   1.082       .  S
C935        H947   1.082       .  S
C936       C3506   1.491       .  S
C937       C3522   1.498       .  S
C938       C4242   1.485       .  S
C939       C4005   1.493       .  S
N950        C955   1.356       .  A
N950        C954   1.353       .  A
N950        H982   1.035       .  S
N951        C958   1.350       .  A
N951        C959   1.352       .  A
N952        C957   1.350       .  A
N952        C956   1.352       .  A
N952        H983   1.035       .  S
N953        C960   1.350       .  A
N953        C961   1.350       .  A
C954        C962   1.387       .  A
C954        C970   1.417       .  A
C955        C971   1.419       .  A
C955        C963   1.387       .  A
C956        C964   1.387       .  A
C956        C973   1.409       .  A
C957        C972   1.411       .  A
C957        C965   1.388       .  A
C958        C970   1.414       .  A
C958        C966   1.387       .  A
C959        C973   1.414       .  A
C959        C967   1.386       .  A
C960        C968   1.387       .  A
C960        C971   1.414       .  A
C961        C969   1.385       .  A
C961        C972   1.409       .  A
C962        C963   1.373       .  A
C962        H974   1.082       .  S
C963        H975   1.082       .  S
C964        C965   1.368       .  A
C964        H976   1.082       .  S
C965        H977   1.082       .  S
C966        C967   1.375       .  A
C966        H978   1.082       .  S
C967        H979   1.083       .  S
C968        C969   1.373       .  A
C968        H980   1.082       .  S
C969        H981   1.082       .  S
C970       C3397   1.487       .  S
C971       C3557   1.496       .  S
C972       C3349   1.479       .  S
C973       C4309   1.484       .  S
C984       C3330   1.500       .  S
C984        N985   1.363       .  A
C984        N989   1.364       .  A
N985        C986   1.362       .  A
C986       C3298   1.503       .  S
C986        N987   1.360       .  A
N987        C988   1.364       .  A
C988       C3314   1.517       .  S
C988        N989   1.364       .  A
N990        C995   1.354       .  A
N990        C994   1.356       .  A
N990       H1022   1.038       .  S
N991        C998   1.354       .  A
N991        C999   1.353       .  A
N992        C997   1.351       .  A
N992        C996   1.349       .  A
N992       H1023   1.038       .  S
N993       C1000   1.352       .  A
N993       C1001   1.353       .  A
C994       C1002   1.387       .  A
C994       C1010   1.421       .  A
C995       C1011   1.420       .  A
C995       C1003   1.388       .  A
C996       C1004   1.387       .  A
C996       C1013   1.409       .  A
C997       C1012   1.410       .  A
C997       C1005   1.387       .  A
C998       C1010   1.417       .  A
C998       C1006   1.386       .  A
C999       C1013   1.417       .  A
C999       C1007   1.386       .  A
C1000      C1008   1.387       .  A
C1000      C1011   1.416       .  A
C1001      C1009   1.385       .  A
C1001      C1012   1.415       .  A
C1002      C1003   1.380       .  A
C1002      H1014   1.082       .  S
C1003      H1015   1.082       .  S
C1004      C1005   1.375       .  A
C1004      H1016   1.082       .  S
C1005      H1017   1.082       .  S
C1006      C1007   1.376       .  A
C1006      H1018   1.082       .  S
C1007      H1019   1.082       .  S
C1008      C1009   1.376       .  A
C1008      H1020   1.082       .  S
C1009      H1021   1.082       .  S
C1010      C3301   1.503       .  S
C1011      C3285   1.495       .  S
C1012      C5234   1.490       .  S
C1013      C4149   1.489       .  S
C1024      C3250   1.501       .  S
C1024      N1025   1.365       .  A
C1024      N1029   1.359       .  A
N1025      C1026   1.360       .  A
C1026      C3234   1.492       .  S
C1026      N1027   1.356       .  A
N1027      C1028   1.352       .  A
C1028      C3269   1.485   1_554  S
C1028      N1029   1.359       .  A
C1030      C3186   1.485       .  S
C1030      N1031   1.359       .  A
C1030      N1035   1.360       .  A
N1031      C1032   1.359       .  A
C1032      C3205   1.500       .  S
C1032      N1033   1.362       .  A
N1033      C1034   1.362       .  A
C1034      C3221   1.504   1_554  S
C1034      N1035   1.357       .  A
C1036      C3173   1.516       .  S
C1036      N1037   1.361       .  A
C1036      N1041   1.367       .  A
N1037      C1038   1.356       .  A
C1038      C3154   1.492       .  S
C1038      N1039   1.355       .  A
N1039      C1040   1.361       .  A
C1040      C3282   1.495       .  S
C1040      N1041   1.368       .  A
N1042      C1047   1.351       .  A
N1042      C1046   1.354       .  A
N1042      H1074   1.037       .  S
N1043      C1050   1.350       .  A
N1043      C1051   1.348       .  A
N1044      C1049   1.351       .  A
N1044      C1048   1.347       .  A
N1044      H1075   1.040       .  S
N1045      C1052   1.349       .  A
N1045      C1053   1.351       .  A
C1046      C1054   1.385       .  A
C1046      C1062   1.414       .  A
C1047      C1063   1.417       .  A
C1047      C1055   1.389       .  A
C1048      C1056   1.388       .  A
C1048      C1065   1.407       .  A
C1049      C1064   1.407       .  A
C1049      C1057   1.387       .  A
C1050      C1062   1.411       .  A
C1050      C1058   1.386       .  A
C1051      C1065   1.408       .  A
C1051      C1059   1.386       .  A
C1052      C1060   1.388       .  A
C1052      C1063   1.414       .  A
C1053      C1061   1.384       .  A
C1053      C1064   1.410       .  A
C1054      C1055   1.375       .  A
C1054      H1066   1.082       .  S
C1055      H1067   1.082       .  S
C1056      C1057   1.370       .  A
C1056      H1068   1.082       .  S
C1057      H1069   1.082       .  S
C1058      C1059   1.375       .  A
C1058      H1070   1.082       .  S
C1059      H1071   1.082       .  S
C1060      C1061   1.378       .  A
C1060      H1072   1.082       .  S
C1061      H1073   1.082       .  S
C1062      C3157   1.490       .  S
C1063      C3189   1.487       .  S
C1064      C4389   1.485       .  S
C1065      C4613   1.473       .  S
N1076      C1081   1.353       .  A
N1076      C1080   1.353       .  A
N1076      H1108   1.037       .  S
N1077      C1084   1.351       .  A
N1077      C1085   1.352       .  A
N1078      C1083   1.352       .  A
N1078      C1082   1.350       .  A
N1078      H1109   1.036       .  S
N1079      C1086   1.349       .  A
N1079      C1087   1.348       .  A
C1080      C1088   1.387       .  A
C1080      C1096   1.415       .  A
C1081      C1097   1.415       .  A
C1081      C1089   1.386       .  A
C1082      C1090   1.388       .  A
C1082      C1099   1.413       .  A
C1083      C1098   1.410       .  A
C1083      C1091   1.387       .  A
C1084      C1096   1.415       .  A
C1084      C1092   1.387       .  A
C1085      C1099   1.414       .  A
C1085      C1093   1.386       .  A
C1086      C1094   1.387       .  A
C1086      C1097   1.410       .  A
C1087      C1095   1.386       .  A
C1087      C1098   1.409       .  A
C1088      C1089   1.375       .  A
C1088      H1100   1.082       .  S
C1089      H1101   1.082       .  S
C1090      C1091   1.370       .  A
C1090      H1102   1.082       .  S
C1091      H1103   1.082       .  S
C1092      C1093   1.375       .  A
C1092      H1104   1.082       .  S
C1093      H1105   1.082       .  S
C1094      C1095   1.374       .  A
C1094      H1106   1.082       .  S
C1095      H1107   1.083       .  S
C1096      C3170   1.490       .  S
C1097      C3237   1.487       .  S
C1098      C3602   1.479       .  S
C1099      C5125   1.485       .  S
N1110      C1115   1.356       .  A
N1110      C1114   1.354       .  A
N1110      H1142   1.039       .  S
N1111      C1118   1.350       .  A
N1111      C1119   1.352       .  A
N1112      C1117   1.349       .  A
N1112      C1116   1.351       .  A
N1112      H1143   1.039       .  S
N1113      C1120   1.351       .  A
N1113      C1121   1.351       .  A
C1114      C1122   1.388       .  A
C1114      C1130   1.418       .  A
C1115      C1131   1.417       .  A
C1115      C1123   1.386       .  A
C1116      C1124   1.386       .  A
C1116      C1133   1.407       .  A
C1117      C1132   1.408       .  A
C1117      C1125   1.388       .  A
C1118      C1130   1.415       .  A
C1118      C1126   1.387       .  A
C1119      C1133   1.413       .  A
C1119      C1127   1.385       .  A
C1120      C1128   1.387       .  A
C1120      C1131   1.416       .  A
C1121      C1129   1.386       .  A
C1121      C1132   1.413       .  A
C1122      C1123   1.374       .  A
C1122      H1134   1.082       .  S
C1123      H1135   1.082       .  S
C1124      C1125   1.367       .  A
C1124      H1136   1.082       .  S
C1125      H1137   1.081       .  S
C1126      C1127   1.378       .  A
C1126      H1138   1.082       .  S
C1127      H1139   1.082       .  S
C1128      C1129   1.376       .  A
C1128      H1140   1.082       .  S
C1129      H1141   1.083       .  S
C1130      C3218   1.490       .  S
C1131      C3266   1.498       .  S
C1132      C3138   1.482       .  S
C1133      C4469   1.488       .  S
N1144      C1149   1.356       .  A
N1144      C1148   1.355       .  A
N1144      H1176   1.036       .  S
N1145      C1152   1.351       .  A
N1145      C1153   1.352       .  A
N1146      C1151   1.350       .  A
N1146      C1150   1.350       .  A
N1146      H1177   1.036       .  S
N1147      C1154   1.350       .  A
N1147      C1155   1.352       .  A
C1148      C1156   1.388       .  A
C1148      C1164   1.421       .  A
C1149      C1165   1.420       .  A
C1149      C1157   1.387       .  A
C1150      C1158   1.388       .  A
C1150      C1167   1.411       .  A
C1151      C1166   1.409       .  A
C1151      C1159   1.387       .  A
C1152      C1164   1.416       .  A
C1152      C1160   1.387       .  A
C1153      C1167   1.415       .  A
C1153      C1161   1.386       .  A
C1154      C1162   1.387       .  A
C1154      C1165   1.415       .  A
C1155      C1163   1.385       .  A
C1155      C1166   1.412       .  A
C1156      C1157   1.379       .  A
C1156      H1168   1.082       .  S
C1157      H1169   1.082       .  S
C1158      C1159   1.369       .  A
C1158      H1170   1.082       .  S
C1159      H1171   1.082       .  S
C1160      C1161   1.377       .  A
C1160      H1172   1.082       .  S
C1161      H1173   1.082       .  S
C1162      C1163   1.374       .  A
C1162      H1174   1.082       .  S
C1163      H1175   1.082       .  S
C1164      C3253   1.494       .  S
C1165      C3317   1.494       .  S
C1166      C4053   1.485       .  S
C1167      C4293   1.488       .  S
N1178      C1183   1.357       .  A
N1178      C1182   1.358       .  A
N1178      H1210   1.038       .  S
N1179      C1186   1.353       .  A
N1179      C1187   1.353       .  A
N1180      C1185   1.351       .  A
N1180      C1184   1.350       .  A
N1180      H1211   1.035       .  S
N1181      C1188   1.351       .  A
N1181      C1189   1.354       .  A
C1182      C1190   1.385       .  A
C1182      C1198   1.422       .  A
C1183      C1199   1.425       .  A
C1183      C1191   1.389       .  A
C1184      C1192   1.388       .  A
C1184      C1201   1.410       .  A
C1185      C1200   1.411       .  A
C1185      C1193   1.387       .  A
C1186      C1198   1.418       .  A
C1186      C1194   1.387       .  A
C1187      C1201   1.416       .  A
C1187      C1195   1.386       .  A
C1188      C1196   1.388       .  A
C1188      C1199   1.418       .  A
C1189      C1197   1.385       .  A
C1189      C1200   1.416       .  A
C1190      C1191   1.376       .  A
C1190      H1202   1.082       .  S
C1191      H1203   1.081       .  S
C1192      C1193   1.371       .  A
C1192      H1204   1.082       .  S
C1193      H1205   1.082       .  S
C1194      C1195   1.376       .  A
C1194      H1206   1.082       .  S
C1195      H1207   1.082       .  S
C1196      C1197   1.375       .  A
C1196      H1208   1.082       .  S
C1197      H1209   1.082       .  S
C1198      C3333   1.507       .  S
C1199      C3202   1.495       .  S
C1200      C3973   1.491       .  S
C1201      C3685   1.484       .  S
O1212      C1228   1.273       .  A
O1212     Zn1218   2.032       .  S
C1213      O1229   1.274       .  A
C1213      O1226   1.273       .  A
C1213      C3122   1.488       .  S
O1214      C1227   1.279       .  A
O1214     Cd1221   2.108       .  S
O1215      C1233   1.269       .  A
O1215     Cd1224   2.032       .  S
O1216      C1230   1.266       .  A
O1216     Cd1220   2.036       .  S
O1217      C1228   1.272       .  A
O1217     Cd1220   2.042       .  S
Zn1218     O1229   2.017       .  S
Zn1218     O1231   1.937       .  S
Zn1218     O1223   1.920       .  S
O1219      C1230   1.275       .  A
O1219     Cd1224   2.063       .  S
Cd1220     O1222   2.009       .  S
Cd1220     O1223   1.964       .  S
Cd1221     O1225   2.102       .  S
Cd1221     O1234   2.122       .  S
Cd1221     O1223   2.031       .  S
O1222      C1232   1.266       .  A
O1223     Cd1224   1.964       .  S
Cd1224     O1226   2.035       .  S
O1225      C1232   1.279       .  A
C1227      O1231   1.264       .  A
C1227      C3090   1.463       .  S
C1228      C3106   1.487       .  S
C1230      C3141   1.492       .  S
C1232      C3365   1.463       .  S
C1233      O1234   1.281       .  A
C1233      C4754   1.488       .  S
O1235      C1251   1.274       .  A
O1235     Zn1241   2.025       .  S
C1236      O1252   1.277       .  A
C1236      O1249   1.270       .  A
C1236      C4786   1.501       .  S
O1237      C1250   1.278       .  A
O1237     Cd1244   2.106   1_655  S
O1238      C1256   1.266       .  A
O1238     Cd1247   2.021   1_455  S
O1239      C1253   1.271       .  A
O1239     Cd1243   2.060   1_465  S
O1240      C1251   1.275       .  A
O1240     Cd1243   2.067       .  S
Zn1241     O1252   2.030   1_545  S
Zn1241     O1254   1.931       .  S
Zn1241     O1246   1.914   1_545  S
O1242      C1253   1.274       .  A
O1242     Cd1247   2.055   1_455  S
Cd1243     O1245   1.993   1_655  S
Cd1243     O1246   1.974   1_545  S
Cd1244     O1248   2.096       .  S
Cd1244     O1257   2.102       .  S
Cd1244     O1246   2.034   1_445  S
O1245      C1255   1.264       .  A
O1246     Cd1247   1.955       .  S
Cd1247     O1249   2.046       .  S
O1248      C1255   1.278       .  A
C1250      O1254   1.262       .  A
C1250      C3045   1.462       .  S
C1251      C3077   1.500       .  S
C1253      C3717   1.492       .  S
C1255      C3026   1.456       .  S
C1256      O1257   1.277   1_565  A
C1256      C3061   1.467       .  S
C1258      C2997   1.507       .  S
C1258      N1259   1.363       .  A
C1258      N1263   1.367       .  A
N1259      C1260   1.363       .  A
C1260      C3010   1.510   1_545  S
C1260      N1261   1.358       .  A
N1261      C1262   1.362       .  A
C1262      C2978   1.506       .  S
C1262      N1263   1.362       .  A
C1264      C2962   1.502       .  S
C1264      N1265   1.365       .  A
C1264      N1269   1.367       .  A
N1265      C1266   1.361       .  A
C1266      C2930   1.493       .  S
C1266      N1267   1.357       .  A
N1267      C1268   1.356       .  A
C1268      C2949   1.508   1_545  S
C1268      N1269   1.366       .  A
C1270      C2914   1.498       .  S
C1270      N1271   1.361       .  A
C1270      N1275   1.363       .  A
N1271      C1272   1.360       .  A
C1272      C2898   1.487       .  S
C1272      N1273   1.356       .  A
N1273      C1274   1.359       .  A
C1274      C2882   1.508       .  S
C1274      N1275   1.360       .  A
N1276      C1281   1.357       .  A
N1276      C1280   1.352       .  A
N1276      H1308   1.037       .  S
N1277      C1284   1.350       .  A
N1277      C1285   1.352       .  A
N1278      C1283   1.349       .  A
N1278      C1282   1.351       .  A
N1278      H1309   1.031       .  S
N1279      C1286   1.352       .  A
N1279      C1287   1.349       .  A
C1280      C1288   1.388       .  A
C1280      C1296   1.418       .  A
C1281      C1297   1.420       .  A
C1281      C1289   1.386       .  A
C1282      C1290   1.388       .  A
C1282      C1299   1.412       .  A
C1283      C1298   1.410       .  A
C1283      C1291   1.388       .  A
C1284      C1296   1.415       .  A
C1284      C1292   1.388       .  A
C1285      C1299   1.414       .  A
C1285      C1293   1.385       .  A
C1286      C1294   1.386       .  A
C1286      C1297   1.413       .  A
C1287      C1295   1.387       .  A
C1287      C1298   1.412       .  A
C1288      C1289   1.379       .  A
C1288      H1300   1.082       .  S
C1289      H1301   1.082       .  S
C1290      C1291   1.371       .  A
C1290      H1302   1.082       .  S
C1291      H1303   1.082       .  S
C1292      C1293   1.377       .  A
C1292      H1304   1.082       .  S
C1293      H1305   1.083       .  S
C1294      C1295   1.373       .  A
C1294      H1306   1.082       .  S
C1295      H1307   1.082       .  S
C1296      C2901   1.490       .  S
C1297      C2933   1.503       .  S
C1298      C3669   1.477       .  S
C1299      C5109   1.484       .  S
N1310      C1315   1.355       .  A
N1310      C1314   1.358       .  A
N1310      H1342   1.035       .  S
N1311      C1318   1.353       .  A
N1311      C1319   1.352       .  A
N1312      C1317   1.350       .  A
N1312      C1316   1.349       .  A
N1312      H1343   1.037       .  S
N1313      C1320   1.351       .  A
N1313      C1321   1.353       .  A
C1314      C1322   1.387       .  A
C1314      C1330   1.423       .  A
C1315      C1331   1.422       .  A
C1315      C1323   1.387       .  A
C1316      C1324   1.388       .  A
C1316      C1333   1.410       .  A
C1317      C1332   1.408       .  A
C1317      C1325   1.386       .  A
C1318      C1330   1.417       .  A
C1318      C1326   1.386       .  A
C1319      C1333   1.416       .  A
C1319      C1327   1.387       .  A
C1320      C1328   1.388       .  A
C1320      C1331   1.417       .  A
C1321      C1329   1.385       .  A
C1321      C1332   1.414       .  A
C1322      C1323   1.377       .  A
C1322      H1334   1.082       .  S
C1323      H1335   1.082       .  S
C1324      C1325   1.376       .  A
C1324      H1336   1.082       .  S
C1325      H1337   1.082       .  S
C1326      C1327   1.378       .  A
C1326      H1338   1.082       .  S
C1327      H1339   1.082       .  S
C1328      C1329   1.376       .  A
C1328      H1340   1.082       .  S
C1329      H1341   1.082       .  S
C1330      C2981   1.505       .  S
C1331      C2885   1.491       .  S
C1332      C4517   1.490       .  S
C1333      C4210   1.485       .  S
C1344      C2850   1.506       .  S
C1344      N1345   1.364       .  A
C1344      N1349   1.361       .  A
N1345      C1346   1.365       .  A
C1346      C2837   1.513       .  S
C1346      N1347   1.363       .  A
N1347      C1348   1.365       .  A
C1348      C2866   1.500       .  S
C1348      N1349   1.358       .  A
N1350      C1355   1.355       .  A
N1350      C1354   1.359       .  A
N1350      H1382   1.036       .  S
N1351      C1358   1.354       .  A
N1351      C1359   1.352       .  A
N1352      C1357   1.354       .  A
N1352      C1356   1.350       .  A
N1352      H1383   1.036       .  S
N1353      C1360   1.353       .  A
N1353      C1361   1.356       .  A
C1354      C1362   1.386       .  A
C1354      C1370   1.424       .  A
C1355      C1371   1.425       .  A
C1355      C1363   1.388       .  A
C1356      C1364   1.389       .  A
C1356      C1373   1.414       .  A
C1357      C1372   1.414       .  A
C1357      C1365   1.387       .  A
C1358      C1370   1.418       .  A
C1358      C1366   1.386       .  A
C1359      C1373   1.417       .  A
C1359      C1367   1.387       .  A
C1360      C1368   1.388       .  A
C1360      C1371   1.424       .  A
C1361      C1369   1.384       .  A
C1361      C1372   1.420       .  A
C1362      C1363   1.378       .  A
C1362      H1374   1.082       .  S
C1363      H1375   1.082       .  S
C1364      C1365   1.370       .  A
C1364      H1376   1.082       .  S
C1365      H1377   1.082       .  S
C1366      C1367   1.377       .  A
C1366      H1378   1.082       .  S
C1367      H1379   1.082       .  S
C1368      C1369   1.376       .  A
C1368      H1380   1.082       .  S
C1369      H1381   1.082       .  S
C1370      C2834   1.506       .  S
C1371      C2917   1.500       .  S
C1372      C5253   1.498       .  S
C1373      C3109   1.485       .  S
N1384      C1389   1.363       .  A
N1384      C1388   1.361       .  A
N1384      H1416   1.041       .  S
N1385      C1392   1.347       .  A
N1385      C1393   1.356       .  A
N1386      C1391   1.349       .  A
N1386      C1390   1.348       .  A
N1386      H1417   1.045       .  S
N1387      C1394   1.345       .  A
N1387      C1395   1.352       .  A
C1388      C1396   1.388       .  A
C1388      C1404   1.430       .  A
C1389      C1405   1.430       .  A
C1389      C1397   1.386       .  A
C1390      C1398   1.386       .  A
C1390      C1407   1.396       .  A
C1391      C1406   1.396       .  A
C1391      C1399   1.384       .  A
C1392      C1404   1.420       .  A
C1392      C1400   1.390       .  A
C1393      C1407   1.419       .  A
C1393      C1401   1.384       .  A
C1394      C1402   1.390       .  A
C1394      C1405   1.415       .  A
C1395      C1403   1.383       .  A
C1395      C1406   1.414       .  A
C1396      C1397   1.379       .  A
C1396      H1408   1.082       .  S
C1397      H1409   1.082       .  S
C1398      C1399   1.368       .  A
C1398      H1410   1.083       .  S
C1399      H1411   1.083       .  S
C1400      C1401   1.384       .  A
C1400      H1412   1.082       .  S
C1401      H1413   1.082       .  S
C1402      C1403   1.383       .  A
C1402      H1414   1.082       .  S
C1403      H1415   1.082       .  S
C1404      C3013   1.504       .  S
C1405      C2946   1.502       .  S
C1406      C4133   1.487       .  S
C1407      C4485   1.499       .  S
N1418      C1423   1.355       .  A
N1418      C1422   1.354       .  A
N1418      H1450   1.038       .  S
N1419      C1426   1.352       .  A
N1419      C1427   1.352       .  A
N1420      C1425   1.349       .  A
N1420      C1424   1.348       .  A
N1420      H1451   1.038       .  S
N1421      C1428   1.350       .  A
N1421      C1429   1.351       .  A
C1422      C1430   1.388       .  A
C1422      C1438   1.418       .  A
C1423      C1439   1.416       .  A
C1423      C1431   1.386       .  A
C1424      C1432   1.387       .  A
C1424      C1441   1.406       .  A
C1425      C1440   1.407       .  A
C1425      C1433   1.388       .  A
C1426      C1438   1.418       .  A
C1426      C1434   1.387       .  A
C1427      C1441   1.416       .  A
C1427      C1435   1.386       .  A
C1428      C1436   1.386       .  A
C1428      C1439   1.412       .  A
C1429      C1437   1.386       .  A
C1429      C1440   1.413       .  A
C1430      C1431   1.375       .  A
C1430      H1442   1.082       .  S
C1431      H1443   1.082       .  S
C1432      C1433   1.370       .  A
C1432      H1444   1.082       .  S
C1433      H1445   1.081       .  S
C1434      C1435   1.381       .  A
C1434      H1446   1.082       .  S
C1435      H1447   1.083       .  S
C1436      C1437   1.373       .  A
C1436      H1448   1.082       .  S
C1437      H1449   1.082       .  S
C1438      C2965   1.498       .  S
C1439      C2869   1.493       .  S
C1440      C2818   1.482       .  S
C1441      C3042   1.483       .  S
N1452      C1457   1.353       .  A
N1452      C1456   1.352       .  A
N1452      H1484   1.025       .  S
N1453      C1460   1.354       .  A
N1453      C1461   1.354       .  A
N1454      C1459   1.353       .  A
N1454      C1458   1.348       .  A
N1454      H1485   1.028       .  S
N1455      C1462   1.355       .  A
N1455      C1463   1.358       .  A
C1456      C1464   1.393       .  A
C1456      C1472   1.425       .  A
C1457      C1473   1.417       .  A
C1457      C1465   1.383       .  A
C1458      C1466   1.390       .  A
C1458      C1475   1.414       .  A
C1459      C1474   1.411       .  A
C1459      C1467   1.385       .  A
C1460      C1472   1.425       .  A
C1460      C1468   1.388       .  A
C1461      C1475   1.421       .  A
C1461      C1469   1.386       .  A
C1462      C1470   1.384       .  A
C1462      C1473   1.407       .  A
C1463      C1471   1.383       .  A
C1463      C1474   1.402       .  A
C1464      C1465   1.382       .  A
C1464      H1476   1.082       .  S
C1465      H1477   1.082       .  S
C1466      C1467   1.374       .  A
C1466      H1478   1.082       .  S
C1467      H1479   1.082       .  S
C1468      C1469   1.375       .  A
C1468      H1480   1.082       .  S
C1469      H1481   1.082       .  S
C1470      C1471   1.367       .  A
C1470      H1482   1.083       .  S
C1471      H1483   1.083       .  S
C1472      C2994   1.495       .  S
C1473      C2853   1.507       .  S
C1474      C3589   1.484       .  S
C1475      C3957   1.486       .  S
C1486      C2786   1.493   1_455  S
C1486      N1487   1.362       .  A
C1486      N1491   1.358       .  A
N1487      C1488   1.362       .  A
C1488      C2802   1.504       .  S
C1488      N1489   1.362       .  A
N1489      C1490   1.363       .  A
C1490      C2770   1.489       .  S
C1490      N1491   1.359       .  A
N1492      C1497   1.355       .  A
N1492      C1496   1.357       .  A
N1492      H1524   1.036       .  S
N1493      C1500   1.352       .  A
N1493      C1501   1.352       .  A
N1494      C1499   1.351       .  A
N1494      C1498   1.348       .  A
N1494      H1525   1.038       .  S
N1495      C1502   1.351       .  A
N1495      C1503   1.353       .  A
C1496      C1504   1.388       .  A
C1496      C1512   1.423       .  A
C1497      C1513   1.422       .  A
C1497      C1505   1.386       .  A
C1498      C1506   1.387       .  A
C1498      C1515   1.408       .  A
C1499      C1514   1.409       .  A
C1499      C1507   1.387       .  A
C1500      C1512   1.418       .  A
C1500      C1508   1.388       .  A
C1501      C1515   1.414       .  A
C1501      C1509   1.385       .  A
C1502      C1510   1.389       .  A
C1502      C1513   1.418       .  A
C1503      C1511   1.384       .  A
C1503      C1514   1.414       .  A
C1504      C1505   1.376       .  A
C1504      H1516   1.082       .  S
C1505      H1517   1.082       .  S
C1506      C1507   1.371       .  A
C1506      H1518   1.082       .  S
C1507      H1519   1.082       .  S
C1508      C1509   1.378       .  A
C1508      H1520   1.082       .  S
C1509      H1521   1.082       .  S
C1510      C1511   1.373       .  A
C1510      H1522   1.082       .  S
C1511      H1523   1.082       .  S
C1512      C2754   1.497       .  S
C1513      C2773   1.496       .  S
C1514      C4085   1.489       .  S
C1515      C4658   1.484       .  S
C1526      C2706   1.509       .  S
C1526      N1527   1.361       .  A
C1526      N1531   1.357       .  A
N1527      C1528   1.365       .  A
C1528      C2738   1.495       .  S
C1528      N1529   1.358       .  A
N1529      C1530   1.356       .  A
C1530      C2722   1.478       .  S
C1530      N1531   1.356       .  A
C1532      C2690   1.503       .  S
C1532      N1533   1.362       .  A
C1532      N1537   1.360       .  A
N1533      C1534   1.361       .  A
C1534      C2757   1.508       .  S
C1534      N1535   1.362       .  A
N1535      C1536   1.362       .  A
C1536      C2677   1.492       .  S
C1536      N1537   1.361       .  A
N1538      C1543   1.357       .  A
N1538      C1542   1.356       .  A
N1538      H1570   1.037       .  S
N1539      C1546   1.352       .  A
N1539      C1547   1.352       .  A
N1540      C1545   1.350       .  A
N1540      C1544   1.350       .  A
N1540      H1571   1.037       .  S
N1541      C1548   1.353       .  A
N1541      C1549   1.353       .  A
C1542      C1550   1.387       .  A
C1542      C1558   1.421       .  A
C1543      C1559   1.424       .  A
C1543      C1551   1.388       .  A
C1544      C1552   1.387       .  A
C1544      C1561   1.409       .  A
C1545      C1560   1.410       .  A
C1545      C1553   1.388       .  A
C1546      C1558   1.415       .  A
C1546      C1554   1.386       .  A
C1547      C1561   1.416       .  A
C1547      C1555   1.387       .  A
C1548      C1556   1.387       .  A
C1548      C1559   1.421       .  A
C1549      C1557   1.385       .  A
C1549      C1560   1.418       .  A
C1550      C1551   1.373       .  A
C1550      H1562   1.082       .  S
C1551      H1563   1.082       .  S
C1552      C1553   1.372       .  A
C1552      H1564   1.082       .  S
C1553      H1565   1.082       .  S
C1554      C1555   1.375       .  A
C1554      H1566   1.082       .  S
C1555      H1567   1.083       .  S
C1556      C1557   1.379       .  A
C1556      H1568   1.082       .  S
C1557      H1569   1.082       .  S
C1558      C2709   1.494       .  S
C1559      C2674   1.506       .  S
C1560      C5186   1.489       .  S
C1561      C4421   1.485       .  S
C1572      C2658   1.487       .  S
C1572      N1573   1.362       .  A
C1572      N1577   1.359       .  A
N1573      C1574   1.362       .  A
C1574      C2645   1.499       .  S
C1574      N1575   1.362       .  A
N1575      C1576   1.365       .  A
C1576      C2626   1.501   1_455  S
C1576      N1577   1.358       .  A
N1578      C1583   1.353       .  A
N1578      C1582   1.358       .  A
N1578      H1610   1.035       .  S
N1579      C1586   1.353       .  A
N1579      C1587   1.350       .  A
N1580      C1585   1.355       .  A
N1580      C1584   1.351       .  A
N1580      H1611   1.036       .  S
N1581      C1588   1.352       .  A
N1581      C1589   1.356       .  A
C1582      C1590   1.386       .  A
C1582      C1598   1.422       .  A
C1583      C1599   1.421       .  A
C1583      C1591   1.388       .  A
C1584      C1592   1.388       .  A
C1584      C1601   1.413       .  A
C1585      C1600   1.413       .  A
C1585      C1593   1.386       .  A
C1586      C1598   1.416       .  A
C1586      C1594   1.386       .  A
C1587      C1601   1.416       .  A
C1587      C1595   1.387       .  A
C1588      C1596   1.388       .  A
C1588      C1599   1.420       .  A
C1589      C1597   1.384       .  A
C1589      C1600   1.418       .  A
C1590      C1591   1.377       .  A
C1590      H1602   1.082       .  S
C1591      H1603   1.082       .  S
C1592      C1593   1.368       .  A
C1592      H1604   1.082       .  S
C1593      H1605   1.081       .  S
C1594      C1595   1.377       .  A
C1594      H1606   1.082       .  S
C1595      H1607   1.082       .  S
C1596      C1597   1.377       .  A
C1596      H1608   1.082       .  S
C1597      H1609   1.082       .  S
C1598      C2642   1.504       .  S
C1599      C2693   1.492       .  S
C1600      C4578   1.498       .  S
C1601      C2613   1.486       .  S
N1612      C1617   1.354       .  A
N1612      C1616   1.351       .  A
N1612      H1644   1.040       .  S
N1613      C1620   1.347       .  A
N1613      C1621   1.350       .  A
N1614      C1619   1.347       .  A
N1614      C1618   1.351       .  A
N1614      H1645   1.038       .  S
N1615      C1622   1.354       .  A
N1615      C1623   1.350       .  A
C1616      C1624   1.386       .  A
C1616      C1632   1.411       .  A
C1617      C1633   1.416       .  A
C1617      C1625   1.387       .  A
C1618      C1626   1.386       .  A
C1618      C1635   1.408       .  A
C1619      C1634   1.409       .  A
C1619      C1627   1.389       .  A
C1620      C1632   1.410       .  A
C1620      C1628   1.388       .  A
C1621      C1635   1.407       .  A
C1621      C1629   1.384       .  A
C1622      C1630   1.385       .  A
C1622      C1633   1.417       .  A
C1623      C1631   1.386       .  A
C1623      C1634   1.415       .  A
C1624      C1625   1.376       .  A
C1624      H1636   1.082       .  S
C1625      H1637   1.082       .  S
C1626      C1627   1.372       .  A
C1626      H1638   1.082       .  S
C1627      H1639   1.082       .  S
C1628      C1629   1.376       .  A
C1628      H1640   1.082       .  S
C1629      H1641   1.082       .  S
C1630      C1631   1.381       .  A
C1630      H1642   1.082       .  S
C1631      H1643   1.082       .  S
C1632      C2629   1.481       .  S
C1633      C2789   1.504       .  S
C1634      C4165   1.480       .  S
C1635      C3125   1.482       .  S
N1646      C1651   1.352       .  A
N1646      C1650   1.353       .  A
N1646      H1678   1.038       .  S
N1647      C1654   1.350       .  A
N1647      C1655   1.350       .  A
N1648      C1653   1.350       .  A
N1648      C1652   1.350       .  A
N1648      H1679   1.037       .  S
N1649      C1656   1.353       .  A
N1649      C1657   1.352       .  A
C1650      C1658   1.386       .  A
C1650      C1666   1.415       .  A
C1651      C1667   1.415       .  A
C1651      C1659   1.387       .  A
C1652      C1660   1.387       .  A
C1652      C1669   1.410       .  A
C1653      C1668   1.410       .  A
C1653      C1661   1.388       .  A
C1654      C1666   1.412       .  A
C1654      C1662   1.386       .  A
C1655      C1669   1.412       .  A
C1655      C1663   1.387       .  A
C1656      C1664   1.386       .  A
C1656      C1667   1.416       .  A
C1657      C1665   1.386       .  A
C1657      C1668   1.416       .  A
C1658      C1659   1.376       .  A
C1658      H1670   1.082       .  S
C1659      H1671   1.082       .  S
C1660      C1661   1.373       .  A
C1660      H1672   1.083       .  S
C1661      H1673   1.082       .  S
C1662      C1663   1.375       .  A
C1662      H1674   1.082       .  S
C1663      H1675   1.082       .  S
C1664      C1665   1.377       .  A
C1664      H1676   1.082       .  S
C1665      H1677   1.082       .  S
C1666      C2741   1.489       .  S
C1667      C2805   1.495       .  S
C1668      C3058   1.485       .  S
C1669      C4197   1.480       .  S
N1680      C1685   1.355       .  A
N1680      C1684   1.356       .  A
N1680      H1712   1.038       .  S
N1681      C1688   1.352       .  A
N1681      C1689   1.353       .  A
N1682      C1687   1.349       .  A
N1682      C1686   1.350       .  A
N1682      H1713   1.039       .  S
N1683      C1690   1.349       .  A
N1683      C1691   1.351       .  A
C1684      C1692   1.386       .  A
C1684      C1700   1.422       .  A
C1685      C1701   1.423       .  A
C1685      C1693   1.388       .  A
C1686      C1694   1.386       .  A
C1686      C1703   1.406       .  A
C1687      C1702   1.407       .  A
C1687      C1695   1.388       .  A
C1688      C1700   1.422       .  A
C1688      C1696   1.389       .  A
C1689      C1703   1.411       .  A
C1689      C1697   1.383       .  A
C1690      C1698   1.389       .  A
C1690      C1701   1.415       .  A
C1691      C1699   1.385       .  A
C1691      C1702   1.410       .  A
C1692      C1693   1.380       .  A
C1692      H1704   1.082       .  S
C1693      H1705   1.082       .  S
C1694      C1695   1.368       .  A
C1694      H1706   1.082       .  S
C1695      H1707   1.082       .  S
C1696      C1697   1.376       .  A
C1696      H1708   1.082       .  S
C1697      H1709   1.082       .  S
C1698      C1699   1.375       .  A
C1698      H1710   1.082       .  S
C1699      H1711   1.082       .  S
C1700      C2661   1.507       .  S
C1701      C2725   1.491       .  S
C1702      C4357   1.480       .  S
C1703      C4277   1.487       .  S
C1714      C2578   1.498       .  S
C1714      N1715   1.364       .  A
C1714      N1719   1.356       .  A
N1715      C1716   1.364       .  A
C1716      C2597   1.494       .  S
C1716      N1717   1.361       .  A
N1717      C1718   1.356       .  A
C1718      C2562   1.487       .  S
C1718      N1719   1.357       .  A
N1720      C1725   1.355       .  A
N1720      C1724   1.354       .  A
N1720      H1752   1.036       .  S
N1721      C1728   1.350       .  A
N1721      C1729   1.351       .  A
N1722      C1727   1.350       .  A
N1722      C1726   1.350       .  A
N1722      H1753   1.037       .  S
N1723      C1730   1.349       .  A
N1723      C1731   1.348       .  A
C1724      C1732   1.389       .  A
C1724      C1740   1.422       .  A
C1725      C1741   1.418       .  A
C1725      C1733   1.386       .  A
C1726      C1734   1.388       .  A
C1726      C1743   1.409       .  A
C1727      C1742   1.407       .  A
C1727      C1735   1.387       .  A
C1728      C1740   1.417       .  A
C1728      C1736   1.388       .  A
C1729      C1743   1.412       .  A
C1729      C1737   1.385       .  A
C1730      C1738   1.387       .  A
C1730      C1741   1.410       .  A
C1731      C1739   1.386       .  A
C1731      C1742   1.409       .  A
C1732      C1733   1.375       .  A
C1732      H1744   1.082       .  S
C1733      H1745   1.082       .  S
C1734      C1735   1.368       .  A
C1734      H1746   1.082       .  S
C1735      H1747   1.082       .  S
C1736      C1737   1.377       .  A
C1736      H1748   1.082       .  S
C1737      H1749   1.082       .  S
C1738      C1739   1.376       .  A
C1738      H1750   1.082       .  S
C1739      H1751   1.083       .  S
C1740      C2546   1.496       .  S
C1741      C2581   1.491       .  S
C1742      C5093   1.476       .  S
C1743      C5173   1.484       .  S
C1754      C2549   1.486       .  S
C1754      N1755   1.363       .  A
C1754      N1759   1.362       .  A
N1755      C1756   1.360       .  A
C1756      C2530   1.499       .  S
C1756      N1757   1.354       .  A
N1757      C1758   1.358       .  A
C1758      C2514   1.495       .  S
C1758      N1759   1.360       .  A
C1760      C2466   1.499       .  S
C1760      N1761   1.361       .  A
C1760      N1765   1.354       .  A
N1761      C1762   1.362       .  A
C1762      C2482   1.502       .  S
C1762      N1763   1.363       .  A
N1763      C1764   1.362       .  A
C1764      C2498   1.491   1_655  S
C1764      N1765   1.358       .  A
C1766      C2450   1.501   1_655  S
C1766      N1767   1.363       .  A
C1766      N1771   1.357       .  A
N1767      C1768   1.363       .  A
C1768      C2434   1.496       .  S
C1768      N1769   1.361       .  A
N1769      C1770   1.360       .  A
C1770      C2418   1.489       .  S
C1770      N1771   1.360       .  A
N1772      C1777   1.355       .  A
N1772      C1776   1.353       .  A
N1772      H1804   1.039       .  S
N1773      C1780   1.353       .  A
N1773      C1781   1.353       .  A
N1774      C1779   1.350       .  A
N1774      C1778   1.350       .  A
N1774      H1805   1.038       .  S
N1775      C1782   1.350       .  A
N1775      C1783   1.348       .  A
C1776      C1784   1.388       .  A
C1776      C1792   1.417       .  A
C1777      C1793   1.416       .  A
C1777      C1785   1.386       .  A
C1778      C1786   1.388       .  A
C1778      C1795   1.409       .  A
C1779      C1794   1.407       .  A
C1779      C1787   1.387       .  A
C1780      C1792   1.419       .  A
C1780      C1788   1.387       .  A
C1781      C1795   1.417       .  A
C1781      C1789   1.386       .  A
C1782      C1790   1.387       .  A
C1782      C1793   1.412       .  A
C1783      C1791   1.385       .  A
C1783      C1794   1.408       .  A
C1784      C1785   1.377       .  A
C1784      H1796   1.082       .  S
C1785      H1797   1.082       .  S
C1786      C1787   1.369       .  A
C1786      H1798   1.082       .  S
C1787      H1799   1.082       .  S
C1788      C1789   1.380       .  A
C1788      H1800   1.082       .  S
C1789      H1801   1.082       .  S
C1790      C1791   1.375       .  A
C1790      H1802   1.082       .  S
C1791      H1803   1.083       .  S
C1792      C2453   1.495       .  S
C1793      C2501   1.496       .  S
C1794      C4642   1.477       .  S
C1795      C4546   1.485       .  S
N1806      C1811   1.355       .  A
N1806      C1810   1.352       .  A
N1806      H1838   1.039       .  S
N1807      C1814   1.351       .  A
N1807      C1815   1.352       .  A
N1808      C1813   1.349       .  A
N1808      C1812   1.351       .  A
N1808      H1839   1.037       .  S
N1809      C1816   1.351       .  A
N1809      C1817   1.348       .  A
C1810      C1818   1.388       .  A
C1810      C1826   1.415       .  A
C1811      C1827   1.416       .  A
C1811      C1819   1.386       .  A
C1812      C1820   1.386       .  A
C1812      C1829   1.406       .  A
C1813      C1828   1.410       .  A
C1813      C1821   1.389       .  A
C1814      C1826   1.414       .  A
C1814      C1822   1.387       .  A
C1815      C1829   1.414       .  A
C1815      C1823   1.385       .  A
C1816      C1824   1.386       .  A
C1816      C1827   1.413       .  A
C1817      C1825   1.385       .  A
C1817      C1828   1.409       .  A
C1818      C1819   1.377       .  A
C1818      H1830   1.082       .  S
C1819      H1831   1.082       .  S
C1820      C1821   1.368       .  A
C1820      H1832   1.082       .  S
C1821      H1833   1.082       .  S
C1822      C1823   1.377       .  A
C1822      H1834   1.082       .  S
C1823      H1835   1.082       .  S
C1824      C1825   1.374       .  A
C1824      H1836   1.082       .  S
C1825      H1837   1.082       .  S
C1826      C2517   1.489       .  S
C1827      C2421   1.498       .  S
C1828      C2402   1.475       .  S
C1829      C3093   1.485       .  S
N1840      C1845   1.356       .  A
N1840      C1844   1.359       .  A
N1840      H1872   1.037       .  S
N1841      C1848   1.352       .  A
N1841      C1849   1.352       .  A
N1842      C1847   1.353       .  A
N1842      C1846   1.353       .  A
N1842      H1873   1.044       .  S
N1843      C1850   1.355       .  A
N1843      C1851   1.355       .  A
C1844      C1852   1.389       .  A
C1844      C1860   1.426       .  A
C1845      C1861   1.419       .  A
C1845      C1853   1.386       .  A
C1846      C1854   1.385       .  A
C1846      C1863   1.407       .  A
C1847      C1862   1.406       .  A
C1847      C1855   1.382       .  A
C1848      C1860   1.423       .  A
C1848      C1856   1.388       .  A
C1849      C1863   1.413       .  A
C1849      C1857   1.383       .  A
C1850      C1858   1.385       .  A
C1850      C1861   1.418       .  A
C1851      C1859   1.389       .  A
C1851      C1862   1.426       .  A
C1852      C1853   1.371       .  A
C1852      H1864   1.082       .  S
C1853      H1865   1.082       .  S
C1854      C1855   1.376       .  A
C1854      H1866   1.082       .  S
C1855      H1867   1.082       .  S
C1856      C1857   1.377       .  A
C1856      H1868   1.081       .  S
C1857      H1869   1.082       .  S
C1858      C1859   1.377       .  A
C1858      H1870   1.082       .  S
C1859      H1871   1.082       .  S
C1860      C2594   1.506       .  S
C1861      C2485   1.500       .  S
C1862      C4325   1.536       .  S
C1863      C3637   1.496       .  S
N1874      C1879   1.354       .  A
N1874      C1878   1.355       .  A
N1874      H1906   1.039       .  S
N1875      C1882   1.350       .  A
N1875      C1883   1.351       .  A
N1876      C1881   1.349       .  A
N1876      C1880   1.350       .  A
N1876      H1907   1.036       .  S
N1877      C1884   1.352       .  A
N1877      C1885   1.352       .  A
C1878      C1886   1.386       .  A
C1878      C1894   1.416       .  A
C1879      C1895   1.418       .  A
C1879      C1887   1.388       .  A
C1880      C1888   1.387       .  A
C1880      C1897   1.409       .  A
C1881      C1896   1.409       .  A
C1881      C1889   1.388       .  A
C1882      C1894   1.413       .  A
C1882      C1890   1.387       .  A
C1883      C1897   1.412       .  A
C1883      C1891   1.386       .  A
C1884      C1892   1.387       .  A
C1884      C1895   1.416       .  A
C1885      C1893   1.386       .  A
C1885      C1896   1.416       .  A
C1886      C1887   1.377       .  A
C1886      H1898   1.082       .  S
C1887      H1899   1.082       .  S
C1888      C1889   1.369       .  A
C1888      H1900   1.082       .  S
C1889      H1901   1.082       .  S
C1890      C1891   1.374       .  A
C1890      H1902   1.082       .  S
C1891      H1903   1.082       .  S
C1892      C1893   1.379       .  A
C1892      H1904   1.082       .  S
C1893      H1905   1.083       .  S
C1894      C2469   1.492       .  S
C1895      C2533   1.496       .  S
C1896      C4101   1.485       .  S
C1897      C4037   1.482       .  S
N1908      C1913   1.355       .  A
N1908      C1912   1.358       .  A
N1908      H1940   1.025       .  S
N1909      C1916   1.350       .  A
N1909      C1917   1.349       .  A
N1910      C1915   1.356       .  A
N1910      C1914   1.353       .  A
N1910      H1941   1.017       .  S
N1911      C1918   1.352       .  A
N1911      C1919   1.353       .  A
C1912      C1920   1.386       .  A
C1912      C1928   1.417       .  A
C1913      C1929   1.418       .  A
C1913      C1921   1.386       .  A
C1914      C1922   1.388       .  A
C1914      C1931   1.412       .  A
C1915      C1930   1.411       .  A
C1915      C1923   1.387       .  A
C1916      C1928   1.413       .  A
C1916      C1924   1.387       .  A
C1917      C1931   1.410       .  A
C1917      C1925   1.387       .  A
C1918      C1926   1.387       .  A
C1918      C1929   1.418       .  A
C1919      C1927   1.385       .  A
C1919      C1930   1.415       .  A
C1920      C1921   1.379       .  A
C1920      H1932   1.083       .  S
C1921      H1933   1.082       .  S
C1922      C1923   1.370       .  A
C1922      H1934   1.083       .  S
C1923      H1935   1.082       .  S
C1924      C1925   1.377       .  A
C1924      H1936   1.082       .  S
C1925      H1937   1.083       .  S
C1926      C1927   1.379       .  A
C1926      H1938   1.082       .  S
C1927      H1939   1.082       .  S
C1928      C2565   1.496       .  S
C1929      C2437   1.499       .  S
C1930      C3074   1.492       .  S
C1931      C3701   1.481       .  S
O1942      C1958   1.268       .  A
O1942     Zn1948   1.988   1_455  S
C1943      O1959   1.274       .  A
C1943      O1956   1.269       .  A
C1943      C4693   1.492       .  S
O1944      C1957   1.280       .  A
O1944     Cd1951   2.119       .  S
O1945      C1963   1.267       .  A
O1945     Cd1954   2.022       .  S
O1946      C1960   1.273       .  A
O1946     Cd1950   2.046       .  S
O1947      C1958   1.272       .  A
O1947     Cd1950   2.048   1_455  S
Zn1948     O1959   2.001       .  S
Zn1948     O1961   1.936   1_655  S
Zn1948     O1953   1.907       .  S
O1949      C1960   1.270       .  A
O1949     Cd1954   2.051       .  S
Cd1950     O1952   2.010   1_655  S
Cd1950     O1953   1.971       .  S
Cd1951     O1955   2.112       .  S
Cd1951     O1964   2.110   1_455  S
Cd1951     O1953   2.027   1_455  S
O1952      C1962   1.267       .  A
O1953     Cd1954   1.968       .  S
Cd1954     O1956   2.045       .  S
O1955      C1962   1.281       .  A
C1957      O1961   1.262       .  A
C1957      C2386   1.470       .  S
C1958      C3346   1.478       .  S
C1960      C2405   1.488       .  S
C1962      C2610   1.474       .  S
C1963      O1964   1.279       .  A
C1963      C2821   1.467       .  S
C1965      C2354   1.483   1_554  S
C1965      N1966   1.359       .  A
C1965      N1970   1.359       .  A
N1966      C1967   1.359       .  A
C1967      C2370   1.486   1_455  S
C1967      N1968   1.362       .  A
N1968      C1969   1.356       .  A
C1969      C2338   1.503       .  S
C1969      N1970   1.359       .  A
N1971      C1976   1.355       .  A
N1971      C1975   1.355       .  A
N1971      H2003   1.037       .  S
N1972      C1979   1.352       .  A
N1972      C1980   1.352       .  A
N1973      C1978   1.353       .  A
N1973      C1977   1.352       .  A
N1973      H2004   1.031       .  S
N1974      C1981   1.350       .  A
N1974      C1982   1.351       .  A
C1975      C1983   1.386       .  A
C1975      C1991   1.417       .  A
C1976      C1992   1.418       .  A
C1976      C1984   1.387       .  A
C1977      C1985   1.389       .  A
C1977      C1994   1.417       .  A
C1978      C1993   1.415       .  A
C1978      C1986   1.387       .  A
C1979      C1991   1.416       .  A
C1979      C1987   1.386       .  A
C1980      C1994   1.418       .  A
C1980      C1988   1.386       .  A
C1981      C1989   1.387       .  A
C1981      C1992   1.415       .  A
C1982      C1990   1.386       .  A
C1982      C1993   1.415       .  A
C1983      C1984   1.376       .  A
C1983      H1995   1.082       .  S
C1984      H1996   1.082       .  S
C1985      C1986   1.369       .  A
C1985      H1997   1.082       .  S
C1986      H1998   1.082       .  S
C1987      C1988   1.376       .  A
C1987      H1999   1.082       .  S
C1988      H2000   1.082       .  S
C1989      C1990   1.375       .  A
C1989      H2001   1.082       .  S
C1990      H2002   1.082       .  S
C1991      C2341   1.494       .  S
C1992      C2322   1.494       .  S
C1993      C4594   1.487       .  S
C1994      C4261   1.486       .  S
C2005      C2277   1.491       .  S
C2005      N2006   1.361       .  A
C2005      N2010   1.361       .  A
N2006      C2007   1.361       .  A
C2007      C2309   1.490   1_545  S
C2007      N2008   1.361       .  A
N2008      C2009   1.358   1_455  A
C2009      C2293   1.503       .  S
C2009      N2010   1.357   1_655  A
C2011      C2325   1.500       .  S
C2011      N2012   1.361       .  A
C2011      N2016   1.359       .  A
N2012      C2013   1.361       .  A
C2013      C2258   1.497       .  S
C2013      N2014   1.365       .  A
N2014      C2015   1.365       .  A
C2015      C2245   1.501       .  S
C2015      N2016   1.363       .  A
N2017      C2022   1.353       .  A
N2017      C2021   1.353       .  A
N2017      H2049   1.040       .  S
N2018      C2025   1.350       .  A
N2018      C2026   1.349       .  A
N2019      C2024   1.350       .  A
N2019      C2023   1.350       .  A
N2019      H2050   1.040       .  S
N2020      C2027   1.353       .  A
N2020      C2028   1.353       .  A
C2021      C2029   1.388       .  A
C2021      C2037   1.417       .  A
C2022      C2038   1.416       .  A
C2022      C2030   1.386       .  A
C2023      C2031   1.387       .  A
C2023      C2040   1.411       .  A
C2024      C2039   1.412       .  A
C2024      C2032   1.388       .  A
C2025      C2037   1.414       .  A
C2025      C2033   1.387       .  A
C2026      C2040   1.412       .  A
C2026      C2034   1.386       .  A
C2027      C2035   1.386       .  A
C2027      C2038   1.418       .  A
C2028      C2036   1.385       .  A
C2028      C2039   1.416       .  A
C2029      C2030   1.374       .  A
C2029      H2041   1.082       .  S
C2030      H2042   1.082       .  S
C2031      C2032   1.366       .  A
C2031      H2043   1.082       .  S
C2032      H2044   1.082       .  S
C2033      C2034   1.375       .  A
C2033      H2045   1.082       .  S
C2034      H2046   1.083       .  S
C2035      C2036   1.377       .  A
C2035      H2047   1.082       .  S
C2036      H2048   1.082       .  S
C2037      C2274   1.489       .  S
C2038      C2242   1.495       .  S
C2039      C4501   1.487       .  S
C2040      C3029   1.479       .  S
C2051      C2194   1.505       .  S
C2051      N2052   1.360       .  A
C2051      N2056   1.359       .  A
N2052      C2053   1.362       .  A
C2053      C2226   1.497   1_554  S
C2053      N2054   1.362       .  A
N2054      C2055   1.364       .  A
C2055      C2210   1.498   1_545  S
C2055      N2056   1.363       .  A
N2057      C2062   1.354       .  A
N2057      C2061   1.355       .  A
N2057      H2089   1.035       .  S
N2058      C2065   1.353       .  A
N2058      C2066   1.352       .  A
N2059      C2064   1.352       .  A
N2059      C2063   1.353       .  A
N2059      H2090   1.031       .  S
N2060      C2067   1.353       .  A
N2060      C2068   1.355       .  A
C2061      C2069   1.386       .  A
C2061      C2077   1.419       .  A
C2062      C2078   1.418       .  A
C2062      C2070   1.388       .  A
C2063      C2071   1.388       .  A
C2063      C2080   1.415       .  A
C2064      C2079   1.416       .  A
C2064      C2072   1.388       .  A
C2065      C2077   1.416       .  A
C2065      C2073   1.386       .  A
C2066      C2080   1.416       .  A
C2066      C2074   1.386       .  A
C2067      C2075   1.386       .  A
C2067      C2078   1.419       .  A
C2068      C2076   1.386       .  A
C2068      C2079   1.419       .  A
C2069      C2070   1.377       .  A
C2069      H2081   1.082       .  S
C2070      H2082   1.082       .  S
C2071      C2072   1.371       .  A
C2071      H2083   1.082       .  S
C2072      H2084   1.082       .  S
C2073      C2074   1.377       .  A
C2073      H2085   1.082       .  S
C2074      H2086   1.082       .  S
C2075      C2076   1.380       .  A
C2075      H2087   1.082       .  S
C2076      H2088   1.082       .  S
C2077      C2261   1.499       .  S
C2078      C2197   1.496       .  S
C2079      C3938   1.493       .  S
C2080      C5077   1.490       .  S
N2091      C2096   1.353       .  A
N2091      C2095   1.355       .  A
N2091      H2123   1.036       .  S
N2092      C2099   1.355       .  A
N2092      C2100   1.353       .  A
N2093      C2098   1.352       .  A
N2093      C2097   1.349       .  A
N2093      H2124   1.036       .  S
N2094      C2101   1.349       .  A
N2094      C2102   1.352       .  A
C2095      C2103   1.388       .  A
C2095      C2111   1.419       .  A
C2096      C2112   1.416       .  A
C2096      C2104   1.387       .  A
C2097      C2105   1.389       .  A
C2097      C2114   1.411       .  A
C2098      C2113   1.408       .  A
C2098      C2106   1.386       .  A
C2099      C2111   1.420       .  A
C2099      C2107   1.385       .  A
C2100      C2114   1.419       .  A
C2100      C2108   1.386       .  A
C2101      C2109   1.388       .  A
C2101      C2112   1.414       .  A
C2102      C2110   1.384       .  A
C2102      C2113   1.410       .  A
C2103      C2104   1.377       .  A
C2103      H2115   1.082       .  S
C2104      H2116   1.082       .  S
C2105      C2106   1.371       .  A
C2105      H2117   1.082       .  S
C2106      H2118   1.082       .  S
C2107      C2108   1.379       .  A
C2107      H2119   1.082       .  S
C2108      H2120   1.082       .  S
C2109      C2110   1.372       .  A
C2109      H2121   1.082       .  S
C2110      H2122   1.082       .  S
C2111      C2229   1.502       .  S
C2112      C2357   1.487       .  S
C2113      C2389   1.486       .  S
C2114      C4178   1.485       .  S
N2125      C2130   1.351       .  A
N2125      C2129   1.353       .  A
N2125      H2157   1.045       .  S
N2126      C2133   1.354       .  A
N2126      C2134   1.347       .  A
N2127      C2132   1.357       .  A
N2127      C2131   1.357       .  A
N2127      H2158   1.038       .  S
N2128      C2135   1.350       .  A
N2128      C2136   1.342       .  A
C2129      C2137   1.383       .  A
C2129      C2145   1.399       .  A
C2130      C2146   1.404       .  A
C2130      C2138   1.386       .  A
C2131      C2139   1.386       .  A
C2131      C2148   1.418       .  A
C2132      C2147   1.422       .  A
C2132      C2140   1.389       .  A
C2133      C2145   1.418       .  A
C2133      C2141   1.385       .  A
C2134      C2148   1.418       .  A
C2134      C2142   1.389       .  A
C2135      C2143   1.383       .  A
C2135      C2146   1.410       .  A
C2136      C2144   1.390       .  A
C2136      C2147   1.412       .  A
C2137      C2138   1.368       .  A
C2137      H2149   1.082       .  S
C2138      H2150   1.083       .  S
C2139      C2140   1.370       .  A
C2139      H2151   1.082       .  S
C2140      H2152   1.082       .  S
C2141      C2142   1.381       .  A
C2141      H2153   1.082       .  S
C2142      H2154   1.082       .  S
C2143      C2144   1.379       .  A
C2143      H2155   1.082       .  S
C2144      H2156   1.082       .  S
C2145      C2306   1.497       .  S
C2146      C2213   1.495       .  S
C2147      C4341   1.481       .  S
C2148      C4018   1.492       .  S
N2159      C2164   1.354       .  A
N2159      C2163   1.354       .  A
N2159      H2191   1.036       .  S
N2160      C2167   1.352       .  A
N2160      C2168   1.353       .  A
N2161      C2166   1.349       .  A
N2161      C2165   1.351       .  A
N2161      H2192   1.032       .  S
N2162      C2169   1.353       .  A
N2162      C2170   1.351       .  A
C2163      C2171   1.388       .  A
C2163      C2179   1.419       .  A
C2164      C2180   1.416       .  A
C2164      C2172   1.386       .  A
C2165      C2173   1.387       .  A
C2165      C2182   1.411       .  A
C2166      C2181   1.412       .  A
C2166      C2174   1.388       .  A
C2167      C2179   1.419       .  A
C2167      C2175   1.387       .  A
C2168      C2182   1.417       .  A
C2168      C2176   1.386       .  A
C2169      C2177   1.385       .  A
C2169      C2180   1.415       .  A
C2170      C2178   1.387       .  A
C2170      C2181   1.417       .  A
C2171      C2172   1.374       .  A
C2171      H2183   1.082       .  S
C2172      H2184   1.082       .  S
C2173      C2174   1.371       .  A
C2173      H2185   1.082       .  S
C2174      H2186   1.082       .  S
C2175      C2176   1.376       .  A
C2175      H2187   1.082       .  S
C2176      H2188   1.082       .  S
C2177      C2178   1.375       .  A
C2177      H2189   1.082       .  S
C2178      H2190   1.083       .  S
C2179      C2373   1.497       .  S
C2180      C2290   1.493       .  S
C2181      C3650   1.479       .  S
C2182      C3573   1.486       .  S
C2193      C2194   1.411       .  A
C2193      C2198   1.410       .  A
C2193      H2200   1.082       .  S
C2194      C2195   1.428       .  A
C2195      C2196   1.413       .  A
C2195      C2202   1.518       .  S
C2196      C2197   1.401       .  A
C2196      H2201   1.083       .  S
C2197      C2198   1.415       .  A
C2198      C2199   1.520       .  S
C2199      F2203   1.384       .  S
C2199      F2204   1.382       .  S
C2199      F2205   1.382       .  S
C2202      F2206   1.383   1_545  S
C2202      F2207   1.382       .  S
C2202      F2208   1.385       .  S
C2209      C2210   1.408       .  A
C2209      C2214   1.406       .  A
C2209      H2216   1.081       .  S
C2210      C2211   1.422       .  A
C2211      C2212   1.407       .  A
C2211      C2218   1.517   1_565  S
C2212      C2213   1.405       .  A
C2212      H2217   1.084       .  S
C2213      C2214   1.421       .  A
C2214      C2215   1.521       .  S
C2215      F2219   1.384       .  S
C2215      F2220   1.383       .  S
C2215      F2221   1.382       .  S
C2218      F2222   1.378       .  S
C2218      F2223   1.383       .  S
C2218      F2224   1.385       .  S
C2225      C2226   1.406       .  A
C2225      C2230   1.406       .  A
C2225      H2232   1.083   1_556  S
C2226      C2227   1.424       .  A
C2227      C2228   1.416       .  A
C2227      C2234   1.519       .  S
C2228      C2229   1.406       .  A
C2228      H2233   1.083       .  S
C2229      C2230   1.416       .  A
C2230      C2231   1.518       .  S
C2231      F2235   1.385       .  S
C2231      F2236   1.379       .  S
C2231      F2237   1.383       .  S
C2234      F2238   1.376       .  S
C2234      F2239   1.383       .  S
C2234      F2240   1.385       .  S
C2241      C2242   1.402       .  A
C2241      C2246   1.410       .  A
C2241      H2248   1.083       .  S
C2242      C2243   1.415       .  A
C2243      C2244   1.409       .  A
C2243      C2250   1.519       .  S
C2244      C2245   1.411       .  A
C2244      H2249   1.082       .  S
C2245      C2246   1.424       .  A
C2246      C2247   1.518       .  S
C2247      F2251   1.385       .  S
C2247      F2252   1.379       .  S
C2247      F2253   1.383       .  S
C2250      F2254   1.382       .  S
C2250      F2255   1.383       .  S
C2250      F2256   1.385       .  S
C2257      C2258   1.409       .  A
C2257      C2262   1.409       .  A
C2257      H2264   1.084       .  S
C2258      C2259   1.423       .  A
C2259      C2260   1.411       .  A
C2259      C2266   1.517       .  S
C2260      C2261   1.404       .  A
C2260      H2265   1.084       .  S
C2261      C2262   1.418       .  A
C2262      C2263   1.520       .  S
C2263      F2267   1.384       .  S
C2263      F2268   1.382       .  S
C2263      F2269   1.383       .  S
C2266      F2270   1.380       .  S
C2266      F2271   1.383       .  S
C2266      F2272   1.385       .  S
C2273      C2274   1.403       .  A
C2273      C2278   1.407       .  A
C2273      H2280   1.083       .  S
C2274      C2275   1.416       .  A
C2275      C2276   1.404       .  A
C2275      C2282   1.521       .  S
C2276      C2277   1.408       .  A
C2276      H2281   1.083       .  S
C2277      C2278   1.422       .  A
C2278      C2279   1.519       .  S
C2279      F2283   1.385       .  S
C2279      F2284   1.383       .  S
C2279      F2285   1.377       .  S
C2282      F2286   1.381       .  S
C2282      F2287   1.382       .  S
C2282      F2288   1.384       .  S
C2289      C2290   1.399       .  A
C2289      C2294   1.410       .  A
C2289      H2296   1.083       .  S
C2290      C2291   1.413       .  A
C2291      C2292   1.408       .  A
C2291      C2298   1.519       .  S
C2292      C2293   1.412       .  A
C2292      H2297   1.082       .  S
C2293      C2294   1.428       .  A
C2294      C2295   1.518       .  S
C2295      F2299   1.384       .  S
C2295      F2300   1.383       .  S
C2295      F2301   1.384       .  S
C2298      F2302   1.382       .  S
C2298      F2303   1.384       .  S
C2298      F2304   1.384       .  S
C2305      C2306   1.406       .  A
C2305      C2310   1.410       .  A
C2305      H2312   1.083       .  S
C2306      C2307   1.422       .  A
C2307      C2308   1.403       .  A
C2307      C2314   1.520       .  S
C2308      C2309   1.404       .  A
C2308      H2313   1.083       .  S
C2309      C2310   1.420       .  A
C2310      C2311   1.518       .  S
C2311      F2315   1.385       .  S
C2311      F2316   1.383       .  S
C2311      F2317   1.377       .  S
C2314      F2318   1.383       .  S
C2314      F2319   1.382       .  S
C2314      F2320   1.386       .  S
C2321      C2322   1.400       .  A
C2321      C2326   1.411       .  A
C2321      H2328   1.083       .  S
C2322      C2323   1.413       .  A
C2323      C2324   1.408       .  A
C2323      C2330   1.519       .  S
C2324      C2325   1.409       .  A
C2324      H2329   1.082       .  S
C2325      C2326   1.427       .  A
C2326      C2327   1.518       .  S
C2327      F2331   1.385       .  S
C2327      F2332   1.383       .  S
C2327      F2333   1.382       .  S
C2330      F2334   1.384       .  S
C2330      F2335   1.383       .  S
C2330      F2336   1.382       .  S
C2337      C2338   1.410       .  A
C2337      C2342   1.404       .  A
C2337      H2344   1.082       .  S
C2338      C2339   1.429       .  A
C2339      C2340   1.413       .  A
C2339      C2346   1.520       .  S
C2340      C2341   1.401       .  A
C2340      H2345   1.083       .  S
C2341      C2342   1.413       .  A
C2342      C2343   1.518       .  S
C2343      F2347   1.382       .  S
C2343      F2348   1.382       .  S
C2343      F2349   1.385       .  S
C2346      F2350   1.382   1_455  S
C2346      F2351   1.383   1_455  S
C2346      F2352   1.385   1_455  S
C2353      C2354   1.406       .  A
C2353      C2358   1.404       .  A
C2353      H2360   1.083       .  S
C2354      C2355   1.419       .  A
C2355      C2356   1.406       .  A
C2355      C2362   1.518       .  S
C2356      C2357   1.402       .  A
C2356      H2361   1.084       .  S
C2357      C2358   1.415       .  A
C2358      C2359   1.520       .  S
C2359      F2363   1.384       .  S
C2359      F2364   1.383       .  S
C2359      F2365   1.380       .  S
C2362      F2366   1.384   1_455  S
C2362      F2367   1.379   1_455  S
C2362      F2368   1.385   1_455  S
C2369      C2370   1.402       .  A
C2369      C2374   1.400       .  A
C2369      H2376   1.084       .  S
C2370      C2371   1.422       .  A
C2371      C2372   1.410       .  A
C2371      C2378   1.521       .  S
C2372      C2373   1.408       .  A
C2372      H2377   1.084       .  S
C2373      C2374   1.419       .  A
C2374      C2375   1.518       .  S
C2375      F2379   1.384       .  S
C2375      F2380   1.380       .  S
C2375      F2381   1.383       .  S
C2378      F2382   1.384   1_655  S
C2378      F2383   1.379       .  S
C2378      F2384   1.385       .  S
C2385      C2386   1.402       .  A
C2385      C2390   1.408       .  A
C2385      H2392   1.083       .  S
C2386      C2387   1.421       .  A
C2387      C2388   1.404       .  A
C2387      C2394   1.523       .  S
C2388      C2389   1.399       .  A
C2388      H2393   1.083       .  S
C2389      C2390   1.416       .  A
C2390      C2391   1.518       .  S
C2391      F2395   1.384       .  S
C2391      F2396   1.382       .  S
C2391      F2397   1.383       .  S
C2394      F2398   1.382       .  S
C2394      F2399   1.381   1_455  S
C2394      F2400   1.385       .  S
C2401      C2402   1.395       .  A
C2401      C2406   1.401       .  A
C2401      H2408   1.083       .  S
C2402      C2403   1.407       .  A
C2403      C2404   1.402       .  A
C2403      C2410   1.519       .  S
C2404      C2405   1.412       .  A
C2404      H2409   1.082       .  S
C2405      C2406   1.429       .  A
C2406      C2407   1.524       .  S
C2407      F2411   1.385       .  S
C2407      F2412   1.383       .  S
C2407      F2413   1.383       .  S
C2410      F2414   1.382       .  S
C2410      F2415   1.383       .  S
C2410      F2416   1.384       .  S
C2417      C2418   1.403       .  A
C2417      C2422   1.404       .  A
C2417      H2424   1.080       .  S
C2418      C2419   1.420       .  A
C2419      C2420   1.412       .  A
C2419      C2426   1.519       .  S
C2420      C2421   1.407       .  A
C2420      H2425   1.083       .  S
C2421      C2422   1.418       .  A
C2422      C2423   1.520       .  S
C2423      F2427   1.385       .  S
C2423      F2428   1.383       .  S
C2423      F2429   1.378       .  S
C2426      F2430   1.383       .  S
C2426      F2431   1.380       .  S
C2426      F2432   1.385       .  S
C2433      C2434   1.407       .  A
C2433      C2438   1.410       .  A
C2433      H2440   1.085       .  S
C2434      C2435   1.423       .  A
C2435      C2436   1.410       .  A
C2435      C2442   1.521       .  S
C2436      C2437   1.405       .  A
C2436      H2441   1.083       .  S
C2437      C2438   1.420       .  A
C2438      C2439   1.518       .  S
C2439      F2443   1.383       .  S
C2439      F2444   1.383       .  S
C2439      F2445   1.380       .  S
C2442      F2446   1.383       .  S
C2442      F2447   1.380       .  S
C2442      F2448   1.385       .  S
C2449      C2450   1.409       .  A
C2449      C2454   1.411       .  A
C2449      H2456   1.082       .  S
C2450      C2451   1.428       .  A
C2451      C2452   1.409       .  A
C2451      C2458   1.521   1_455  S
C2452      C2453   1.400       .  A
C2452      H2457   1.083       .  S
C2453      C2454   1.414       .  A
C2454      C2455   1.517       .  S
C2455      F2459   1.385       .  S
C2455      F2460   1.381       .  S
C2455      F2461   1.383       .  S
C2458      F2462   1.382       .  S
C2458      F2463   1.383       .  S
C2458      F2464   1.386       .  S
C2465      C2466   1.410       .  A
C2465      C2470   1.407       .  A
C2465      H2472   1.082       .  S
C2466      C2467   1.428       .  A
C2467      C2468   1.409       .  A
C2467      C2474   1.521       .  S
C2468      C2469   1.400       .  A
C2468      H2473   1.083       .  S
C2469      C2470   1.414       .  A
C2470      C2471   1.519       .  S
C2471      F2475   1.385       .  S
C2471      F2476   1.383       .  S
C2471      F2477   1.381       .  S
C2474      F2478   1.384       .  S
C2474      F2479   1.382       .  S
C2474      F2480   1.385       .  S
C2481      C2482   1.411       .  A
C2481      C2486   1.410       .  A
C2481      H2488   1.082       .  S
C2482      C2483   1.426       .  A
C2483      C2484   1.411       .  A
C2483      C2490   1.521       .  S
C2484      C2485   1.403       .  A
C2484      H2489   1.083       .  S
C2485      C2486   1.416       .  A
C2486      C2487   1.520       .  S
C2487      F2491   1.385       .  S
C2487      F2492   1.383       .  S
C2487      F2493   1.380       .  S
C2490      F2494   1.383       .  S
C2490      F2495   1.377       .  S
C2490      F2496   1.385       .  S
C2497      C2498   1.409       .  A
C2497      C2502   1.406       .  A
C2497      H2504   1.083   1_455  S
C2498      C2499   1.421       .  A
C2499      C2500   1.411       .  A
C2499      C2506   1.521       .  S
C2500      C2501   1.406       .  A
C2500      H2505   1.083       .  S
C2501      C2502   1.415       .  A
C2502      C2503   1.521       .  S
C2503      F2507   1.384       .  S
C2503      F2508   1.384       .  S
C2503      F2509   1.380       .  S
C2506      F2510   1.383       .  S
C2506      F2511   1.375       .  S
C2506      F2512   1.385       .  S
C2513      C2514   1.409       .  A
C2513      C2518   1.402       .  A
C2513      H2520   1.081       .  S
C2514      C2515   1.425       .  A
C2515      C2516   1.412       .  A
C2515      C2522   1.518       .  S
C2516      C2517   1.401       .  A
C2516      H2521   1.083       .  S
C2517      C2518   1.412       .  A
C2518      C2519   1.520       .  S
C2519      F2523   1.385       .  S
C2519      F2524   1.379       .  S
C2519      F2525   1.383       .  S
C2522      F2526   1.378       .  S
C2522      F2527   1.383       .  S
C2522      F2528   1.385       .  S
C2529      C2530   1.409       .  A
C2529      C2534   1.411       .  A
C2529      H2536   1.082       .  S
C2530      C2531   1.427       .  A
C2531      C2532   1.408       .  A
C2531      C2538   1.521       .  S
C2532      C2533   1.400       .  A
C2532      H2537   1.083       .  S
C2533      C2534   1.417       .  A
C2534      C2535   1.520       .  S
C2535      F2539   1.380       .  S
C2535      F2540   1.383       .  S
C2535      F2541   1.384       .  S
C2538      F2542   1.382       .  S
C2538      F2543   1.384       .  S
C2538      F2544   1.384       .  S
C2545      C2546   1.404       .  A
C2545      C2550   1.405       .  A
C2545      H2552   1.083       .  S
C2546      C2547   1.422       .  A
C2547      C2548   1.407       .  A
C2547      C2554   1.521       .  S
C2548      C2549   1.406       .  A
C2548      H2553   1.085       .  S
C2549      C2550   1.419       .  A
C2550      C2551   1.520       .  S
C2551      F2555   1.385       .  S
C2551      F2556   1.378       .  S
C2551      F2557   1.383       .  S
C2554      F2558   1.383       .  S
C2554      F2559   1.381       .  S
C2554      F2560   1.384       .  S
C2561      C2562   1.403       .  A
C2561      C2566   1.403       .  A
C2561      H2568   1.080       .  S
C2562      C2563   1.419       .  A
C2563      C2564   1.414       .  A
C2563      C2570   1.519       .  S
C2564      C2565   1.408       .  A
C2564      H2569   1.083       .  S
C2565      C2566   1.416       .  A
C2566      C2567   1.521       .  S
C2567      F2571   1.385       .  S
C2567      F2572   1.381       .  S
C2567      F2573   1.383       .  S
C2570      F2574   1.380       .  S
C2570      F2575   1.383       .  S
C2570      F2576   1.384       .  S
C2577      C2578   1.409       .  A
C2577      C2582   1.410       .  A
C2577      H2584   1.083       .  S
C2578      C2579   1.429       .  A
C2579      C2580   1.406       .  A
C2579      C2586   1.521       .  S
C2580      C2581   1.397       .  A
C2580      H2585   1.083       .  S
C2581      C2582   1.414       .  A
C2582      C2583   1.519       .  S
C2583      F2587   1.384       .  S
C2583      F2588   1.383       .  S
C2583      F2589   1.381       .  S
C2586      F2590   1.383       .  S
C2586      F2591   1.382       .  S
C2586      F2592   1.385       .  S
C2593      C2594   1.407       .  A
C2593      C2598   1.408       .  A
C2593      H2600   1.084       .  S
C2594      C2595   1.423       .  A
C2595      C2596   1.410       .  A
C2595      C2602   1.518       .  S
C2596      C2597   1.406       .  A
C2596      H2601   1.084       .  S
C2597      C2598   1.421       .  A
C2598      C2599   1.522       .  S
C2599      F2603   1.384       .  S
C2599      F2604   1.380       .  S
C2599      F2605   1.385       .  S
C2602      F2606   1.383       .  S
C2602      F2607   1.381       .  S
C2602      F2608   1.384       .  S
C2609      C2610   1.406       .  A
C2609      C2614   1.404       .  A
C2609      H2616   1.084       .  S
C2610      C2611   1.413       .  A
C2611      C2612   1.407       .  A
C2611      C2618   1.516       .  S
C2612      C2613   1.405       .  A
C2612      H2617   1.083       .  S
C2613      C2614   1.415       .  A
C2614      C2615   1.521       .  S
C2615      F2619   1.384       .  S
C2615      F2620   1.381       .  S
C2615      F2621   1.384       .  S
C2618      F2622   1.383       .  S
C2618      F2623   1.384       .  S
C2618      F2624   1.384       .  S
C2625      C2626   1.412       .  A
C2625      C2630   1.406       .  A
C2625      H2632   1.082       .  S
C2626      C2627   1.431       .  A
C2627      C2628   1.405       .  A
C2627      C2634   1.516       .  S
C2628      C2629   1.393       .  A
C2628      H2633   1.083       .  S
C2629      C2630   1.410       .  A
C2630      C2631   1.519       .  S
C2631      F2635   1.383       .  S
C2631      F2636   1.383       .  S
C2631      F2637   1.384       .  S
C2634      F2638   1.383   1_655  S
C2634      F2639   1.378       .  S
C2634      F2640   1.386       .  S
C2641      C2642   1.405       .  A
C2641      C2646   1.414       .  A
C2641      H2648   1.083       .  S
C2642      C2643   1.417       .  A
C2643      C2644   1.410       .  A
C2643      C2650   1.518       .  S
C2644      C2645   1.408       .  A
C2644      H2649   1.084       .  S
C2645      C2646   1.422       .  A
C2646      C2647   1.519       .  S
C2647      F2651   1.385       .  S
C2647      F2652   1.384       .  S
C2647      F2653   1.381       .  S
C2650      F2654   1.383       .  S
C2650      F2655   1.382       .  S
C2650      F2656   1.384       .  S
C2657      C2658   1.403       .  A
C2657      C2662   1.411       .  A
C2657      H2664   1.085       .  S
C2658      C2659   1.418       .  A
C2659      C2660   1.405       .  A
C2659      C2666   1.516       .  S
C2660      C2661   1.406       .  A
C2660      H2665   1.085       .  S
C2661      C2662   1.426       .  A
C2662      C2663   1.519       .  S
C2663      F2667   1.384       .  S
C2663      F2668   1.380       .  S
C2663      F2669   1.383       .  S
C2666      F2670   1.380       .  S
C2666      F2671   1.383       .  S
C2666      F2672   1.384       .  S
C2673      C2674   1.408       .  A
C2673      C2678   1.409       .  A
C2673      H2680   1.085       .  S
C2674      C2675   1.423       .  A
C2675      C2676   1.409       .  A
C2675      C2682   1.520       .  S
C2676      C2677   1.406       .  A
C2676      H2681   1.084       .  S
C2677      C2678   1.422       .  A
C2678      C2679   1.519       .  S
C2679      F2683   1.385       .  S
C2679      F2684   1.381       .  S
C2679      F2685   1.382       .  S
C2682      F2686   1.381       .  S
C2682      F2687   1.383       .  S
C2682      F2688   1.384       .  S
C2689      C2690   1.412       .  A
C2689      C2694   1.407       .  A
C2689      H2696   1.082       .  S
C2690      C2691   1.429       .  A
C2691      C2692   1.412       .  A
C2691      C2698   1.520       .  S
C2692      C2693   1.400       .  A
C2692      H2697   1.083       .  S
C2693      C2694   1.412       .  A
C2694      C2695   1.520       .  S
C2695      F2699   1.384       .  S
C2695      F2700   1.382       .  S
C2695      F2701   1.383       .  S
C2698      F2702   1.382       .  S
C2698      F2703   1.383       .  S
C2698      F2704   1.385       .  S
C2705      C2706   1.416       .  A
C2705      C2710   1.408       .  A
C2705      H2712   1.081       .  S
C2706      C2707   1.428       .  A
C2707      C2708   1.412       .  A
C2707      C2714   1.519       .  S
C2708      C2709   1.401       .  A
C2708      H2713   1.083       .  S
C2709      C2710   1.411       .  A
C2710      C2711   1.521       .  S
C2711      F2715   1.383       .  S
C2711      F2716   1.381       .  S
C2711      F2717   1.384       .  S
C2714      F2718   1.384       .  S
C2714      F2719   1.383       .  S
C2714      F2720   1.385       .  S
C2721      C2722   1.402       .  A
C2721      C2726   1.399       .  A
C2721      H2728   1.085       .  S
C2722      C2723   1.417       .  A
C2723      C2724   1.411       .  A
C2723      C2730   1.521       .  S
C2724      C2725   1.409       .  A
C2724      H2729   1.083       .  S
C2725      C2726   1.417       .  A
C2726      C2727   1.519       .  S
C2727      F2731   1.382       .  S
C2727      F2732   1.381       .  S
C2727      F2733   1.384       .  S
C2730      F2734   1.378       .  S
C2730      F2735   1.383       .  S
C2730      F2736   1.384       .  S
C2737      C2738   1.407       .  A
C2737      C2742   1.404       .  A
C2737      H2744   1.083       .  S
C2738      C2739   1.427       .  A
C2739      C2740   1.409       .  A
C2739      C2746   1.521       .  S
C2740      C2741   1.401       .  A
C2740      H2745   1.083       .  S
C2741      C2742   1.415       .  A
C2742      C2743   1.518       .  S
C2743      F2747   1.384       .  S
C2743      F2748   1.382       .  S
C2743      F2749   1.382       .  S
C2746      F2750   1.379       .  S
C2746      F2751   1.383       .  S
C2746      F2752   1.385       .  S
C2753      C2754   1.400       .  A
C2753      C2758   1.410       .  A
C2753      H2760   1.083       .  S
C2754      C2755   1.414       .  A
C2755      C2756   1.411       .  A
C2755      C2762   1.520       .  S
C2756      C2757   1.414       .  A
C2756      H2761   1.082       .  S
C2757      C2758   1.427       .  A
C2758      C2759   1.517       .  S
C2759      F2763   1.385       .  S
C2759      F2764   1.384       .  S
C2759      F2765   1.379       .  S
C2762      F2766   1.383       .  S
C2762      F2767   1.381       .  S
C2762      F2768   1.385       .  S
C2769      C2770   1.407       .  A
C2769      C2774   1.407       .  A
C2769      H2776   1.084       .  S
C2770      C2771   1.422       .  A
C2771      C2772   1.406       .  A
C2771      C2778   1.520       .  S
C2772      C2773   1.403       .  A
C2772      H2777   1.084       .  S
C2773      C2774   1.419       .  A
C2774      C2775   1.519       .  S
C2775      F2779   1.385       .  S
C2775      F2780   1.383       .  S
C2775      F2781   1.382       .  S
C2778      F2782   1.383       .  S
C2778      F2783   1.378       .  S
C2778      F2784   1.385       .  S
C2785      C2786   1.406       .  A
C2785      C2790   1.413       .  A
C2785      H2792   1.083       .  S
C2786      C2787   1.421       .  A
C2787      C2788   1.408       .  A
C2787      C2794   1.522   1_655  S
C2788      C2789   1.406       .  A
C2788      H2793   1.084       .  S
C2789      C2790   1.421       .  A
C2790      C2791   1.519       .  S
C2791      F2795   1.385       .  S
C2791      F2796   1.383       .  S
C2791      F2797   1.379       .  S
C2794      F2798   1.384       .  S
C2794      F2799   1.379       .  S
C2794      F2800   1.385       .  S
C2801      C2802   1.413       .  A
C2801      C2806   1.413       .  A
C2801      H2808   1.082       .  S
C2802      C2803   1.427       .  A
C2803      C2804   1.410       .  A
C2803      C2810   1.521       .  S
C2804      C2805   1.401       .  A
C2804      H2809   1.083       .  S
C2805      C2806   1.414       .  A
C2806      C2807   1.520       .  S
C2807      F2811   1.384       .  S
C2807      F2812   1.383       .  S
C2807      F2813   1.381       .  S
C2810      F2814   1.384       .  S
C2810      F2815   1.382       .  S
C2810      F2816   1.385       .  S
C2817      C2818   1.399       .  A
C2817      C2822   1.401       .  A
C2817      H2824   1.083       .  S
C2818      C2819   1.416       .  A
C2819      C2820   1.409       .  A
C2819      C2826   1.521       .  S
C2820      C2821   1.404       .  A
C2820      H2825   1.083       .  S
C2821      C2822   1.414       .  A
C2822      C2823   1.518       .  S
C2823      F2827   1.385       .  S
C2823      F2828   1.383       .  S
C2823      F2829   1.383       .  S
C2826      F2830   1.382       .  S
C2826      F2831   1.383       .  S
C2826      F2832   1.384       .  S
C2833      C2834   1.399       .  A
C2833      C2838   1.412       .  A
C2833      H2840   1.083       .  S
C2834      C2835   1.417       .  A
C2835      C2836   1.416       .  A
C2835      C2842   1.518       .  S
C2836      C2837   1.412       .  A
C2836      H2841   1.082       .  S
C2837      C2838   1.429       .  A
C2838      C2839   1.517       .  S
C2839      F2843   1.385       .  S
C2839      F2844   1.384       .  S
C2839      F2845   1.381       .  S
C2842      F2846   1.385       .  S
C2842      F2847   1.383       .  S
C2842      F2848   1.382       .  S
C2849      C2850   1.409       .  A
C2849      C2854   1.411       .  A
C2849      H2856   1.080       .  S
C2850      C2851   1.424       .  A
C2851      C2852   1.412       .  A
C2851      C2858   1.520       .  S
C2852      C2853   1.409       .  A
C2852      H2857   1.083       .  S
C2853      C2854   1.422       .  A
C2854      C2855   1.522       .  S
C2855      F2859   1.384       .  S
C2855      F2860   1.384       .  S
C2855      F2861   1.381       .  S
C2858      F2862   1.384       .  S
C2858      F2863   1.382       .  S
C2858      F2864   1.384       .  S
C2865      C2866   1.408       .  A
C2865      C2870   1.407       .  A
C2865      H2872   1.078       .  S
C2866      C2867   1.427       .  A
C2867      C2868   1.409       .  A
C2867      C2874   1.517       .  S
C2868      C2869   1.400       .  A
C2868      H2873   1.084       .  S
C2869      C2870   1.413       .  A
C2870      C2871   1.518       .  S
C2871      F2875   1.381       .  S
C2871      F2876   1.384       .  S
C2871      F2877   1.385       .  S
C2874      F2878   1.381       .  S
C2874      F2879   1.383       .  S
C2874      F2880   1.386       .  S
C2881      C2882   1.415       .  A
C2881      C2886   1.406       .  A
C2881      H2888   1.081       .  S
C2882      C2883   1.430       .  A
C2883      C2884   1.411       .  A
C2883      C2890   1.521       .  S
C2884      C2885   1.399       .  A
C2884      H2889   1.083       .  S
C2885      C2886   1.410       .  A
C2886      C2887   1.520       .  S
C2887      F2891   1.385       .  S
C2887      F2892   1.383       .  S
C2887      F2893   1.382       .  S
C2890      F2894   1.383       .  S
C2890      F2895   1.382       .  S
C2890      F2896   1.385       .  S
C2897      C2898   1.408       .  A
C2897      C2902   1.407       .  A
C2897      H2904   1.083       .  S
C2898      C2899   1.418       .  A
C2899      C2900   1.407       .  A
C2899      C2906   1.516       .  S
C2900      C2901   1.402       .  A
C2900      H2905   1.084       .  S
C2901      C2902   1.415       .  A
C2902      C2903   1.521       .  S
C2903      F2907   1.379       .  S
C2903      F2908   1.384       .  S
C2903      F2909   1.384       .  S
C2906      F2910   1.379       .  S
C2906      F2911   1.384       .  S
C2906      F2912   1.385       .  S
C2913      C2914   1.407       .  A
C2913      C2918   1.408       .  A
C2913      H2920   1.083       .  S
C2914      C2915   1.424       .  A
C2915      C2916   1.411       .  A
C2915      C2922   1.520       .  S
C2916      C2917   1.405       .  A
C2916      H2921   1.083       .  S
C2917      C2918   1.419       .  A
C2918      C2919   1.519       .  S
C2919      F2923   1.384       .  S
C2919      F2924   1.383       .  S
C2919      F2925   1.381       .  S
C2922      F2926   1.380       .  S
C2922      F2927   1.384       .  S
C2922      F2928   1.385       .  S
C2929      C2930   1.406       .  A
C2929      C2934   1.406       .  A
C2929      H2936   1.084       .  S
C2930      C2931   1.420       .  A
C2931      C2932   1.414       .  A
C2931      C2938   1.519       .  S
C2932      C2933   1.408       .  A
C2932      H2937   1.083       .  S
C2933      C2934   1.419       .  A
C2934      C2935   1.519       .  S
C2935      F2939   1.385       .  S
C2935      F2940   1.383       .  S
C2935      F2941   1.381       .  S
C2938      F2942   1.384       .  S
C2938      F2943   1.378       .  S
C2938      F2944   1.385       .  S
C2945      C2946   1.401       .  A
C2945      C2950   1.412       .  A
C2945      H2952   1.083       .  S
C2946      C2947   1.415       .  A
C2947      C2948   1.413       .  A
C2947      C2954   1.518       .  S
C2948      C2949   1.410       .  A
C2948      H2953   1.082   1_565  S
C2949      C2950   1.431       .  A
C2950      C2951   1.523       .  S
C2951      F2955   1.385       .  S
C2951      F2956   1.384       .  S
C2951      F2957   1.382   1_565  S
C2954      F2958   1.383       .  S
C2954      F2959   1.381       .  S
C2954      F2960   1.384       .  S
C2961      C2962   1.411       .  A
C2961      C2966   1.414       .  A
C2961      H2968   1.082       .  S
C2962      C2963   1.425       .  A
C2963      C2964   1.408       .  A
C2963      C2970   1.520       .  S
C2964      C2965   1.401       .  A
C2964      H2969   1.084       .  S
C2965      C2966   1.416       .  A
C2966      C2967   1.518       .  S
C2967      F2971   1.384       .  S
C2967      F2972   1.384       .  S
C2967      F2973   1.381       .  S
C2970      F2974   1.383       .  S
C2970      F2975   1.379       .  S
C2970      F2976   1.386       .  S
C2977      C2978   1.407       .  A
C2977      C2982   1.408       .  A
C2977      H2984   1.080       .  S
C2978      C2979   1.426       .  A
C2979      C2980   1.416       .  A
C2979      C2986   1.517       .  S
C2980      C2981   1.406       .  A
C2980      H2985   1.083       .  S
C2981      C2982   1.418       .  A
C2982      C2983   1.520       .  S
C2983      F2987   1.385       .  S
C2983      F2988   1.382       .  S
C2983      F2989   1.379       .  S
C2986      F2990   1.383       .  S
C2986      F2991   1.381       .  S
C2986      F2992   1.385       .  S
C2993      C2994   1.399       .  A
C2993      C2998   1.410       .  A
C2993      H3000   1.083       .  S
C2994      C2995   1.413       .  A
C2995      C2996   1.409       .  A
C2995      C3002   1.519       .  S
C2996      C2997   1.411       .  A
C2996      H3001   1.078       .  S
C2997      C2998   1.429       .  A
C2998      C2999   1.519       .  S
C2999      F3003   1.386       .  S
C2999      F3004   1.380       .  S
C2999      F3005   1.383       .  S
C3002      F3006   1.381       .  S
C3002      F3007   1.383       .  S
C3002      F3008   1.385       .  S
C3009      C3010   1.410       .  A
C3009      C3014   1.411       .  A
C3009      H3016   1.080   1_565  S
C3010      C3011   1.430       .  A
C3011      C3012   1.414       .  A
C3011      C3018   1.520       .  S
C3012      C3013   1.402       .  A
C3012      H3017   1.083       .  S
C3013      C3014   1.416       .  A
C3014      C3015   1.519       .  S
C3015      F3019   1.385       .  S
C3015      F3020   1.381       .  S
C3015      F3021   1.383       .  S
C3018      F3022   1.383   1_565  S
C3018      F3023   1.384       .  S
C3018      F3024   1.385       .  S
C3025      C3026   1.401       .  A
C3025      C3030   1.403       .  A
C3025      H3032   1.083       .  S
C3026      C3027   1.414       .  A
C3027      C3028   1.401       .  A
C3027      C3034   1.519       .  S
C3028      C3029   1.402       .  A
C3028      H3033   1.083       .  S
C3029      C3030   1.413       .  A
C3030      C3031   1.518       .  S
C3031      F3035   1.384       .  S
C3031      F3036   1.382       .  S
C3031      F3037   1.383       .  S
C3034      F3038   1.382       .  S
C3034      F3039   1.380   1_455  S
C3034      F3040   1.384       .  S
C3041      C3042   1.399       .  A
C3041      C3046   1.403       .  A
C3041      H3048   1.083       .  S
C3042      C3043   1.418       .  A
C3043      C3044   1.406       .  A
C3043      C3050   1.518       .  S
C3044      C3045   1.399       .  A
C3044      H3049   1.083       .  S
C3045      C3046   1.418       .  A
C3046      C3047   1.520       .  S
C3047      F3051   1.385       .  S
C3047      F3052   1.383       .  S
C3047      F3053   1.381       .  S
C3050      F3054   1.382       .  S
C3050      F3055   1.382       .  S
C3050      F3056   1.385       .  S
C3057      C3058   1.404       .  A
C3057      C3062   1.406       .  A
C3057      H3064   1.083       .  S
C3058      C3059   1.414       .  A
C3059      C3060   1.405       .  A
C3059      C3066   1.520       .  S
C3060      C3061   1.404       .  A
C3060      H3065   1.084       .  S
C3061      C3062   1.412       .  A
C3062      C3063   1.517       .  S
C3063      F3067   1.384       .  S
C3063      F3068   1.383       .  S
C3063      F3069   1.383   1_565  S
C3066      F3070   1.382       .  S
C3066      F3071   1.383       .  S
C3066      F3072   1.384       .  S
C3073      C3074   1.402       .  A
C3073      C3078   1.410       .  A
C3073      H3080   1.083       .  S
C3074      C3075   1.412       .  A
C3075      C3076   1.408       .  A
C3075      C3082   1.520       .  S
C3076      C3077   1.412       .  A
C3076      H3081   1.081       .  S
C3077      C3078   1.425       .  A
C3078      C3079   1.519       .  S
C3079      F3083   1.384       .  S
C3079      F3084   1.383       .  S
C3079      F3085   1.384       .  S
C3082      F3086   1.383       .  S
C3082      F3087   1.382       .  S
C3082      F3088   1.385       .  S
C3089      C3090   1.402       .  A
C3089      C3094   1.408       .  A
C3089      H3096   1.083       .  S
C3090      C3091   1.414       .  A
C3091      C3092   1.402       .  A
C3091      C3098   1.517       .  S
C3092      C3093   1.400       .  A
C3092      H3097   1.084       .  S
C3093      C3094   1.417       .  A
C3094      C3095   1.518       .  S
C3095      F3099   1.384       .  S
C3095      F3100   1.383       .  S
C3095      F3101   1.382       .  S
C3098      F3102   1.383       .  S
C3098      F3103   1.384       .  S
C3098      F3104   1.384       .  S
C3105      C3106   1.410       .  A
C3105      C3110   1.401       .  A
C3105      H3112   1.082       .  S
C3106      C3107   1.420       .  A
C3107      C3108   1.409       .  A
C3107      C3114   1.517       .  S
C3108      C3109   1.404       .  A
C3108      H3113   1.083       .  S
C3109      C3110   1.411       .  A
C3110      C3111   1.522       .  S
C3111      F3115   1.385       .  S
C3111      F3116   1.381       .  S
C3111      F3117   1.383       .  S
C3114      F3118   1.382       .  S
C3114      F3119   1.383       .  S
C3114      F3120   1.385       .  S
C3121      C3122   1.412       .  A
C3121      C3126   1.400       .  A
C3121      H3128   1.082       .  S
C3122      C3123   1.421       .  A
C3123      C3124   1.408       .  A
C3123      C3130   1.519       .  S
C3124      C3125   1.402       .  A
C3124      H3129   1.083       .  S
C3125      C3126   1.410       .  A
C3126      C3127   1.520       .  S
C3127      F3131   1.386       .  S
C3127      F3132   1.382       .  S
C3127      F3133   1.382       .  S
C3130      F3134   1.383       .  S
C3130      F3135   1.383       .  S
C3130      F3136   1.385       .  S
C3137      C3138   1.397       .  A
C3137      C3142   1.404       .  A
C3137      H3144   1.083       .  S
C3138      C3139   1.411       .  A
C3139      C3140   1.403       .  A
C3139      C3146   1.519       .  S
C3140      C3141   1.410       .  A
C3140      H3145   1.082       .  S
C3141      C3142   1.430       .  A
C3142      C3143   1.523       .  S
C3143      F3147   1.386       .  S
C3143      F3148   1.383       .  S
C3143      F3149   1.384       .  S
C3146      F3150   1.382       .  S
C3146      F3151   1.382       .  S
C3146      F3152   1.385       .  S
C3153      C3154   1.408       .  A
C3153      C3158   1.408       .  A
C3153      H3160   1.083       .  S
C3154      C3155   1.424       .  A
C3155      C3156   1.406       .  A
C3155      C3162   1.518       .  S
C3156      C3157   1.400       .  A
C3156      H3161   1.084       .  S
C3157      C3158   1.414       .  A
C3158      C3159   1.518       .  S
C3159      F3163   1.381       .  S
C3159      F3164   1.385       .  S
C3159      F3165   1.382       .  S
C3162      F3166   1.383       .  S
C3162      F3167   1.382       .  S
C3162      F3168   1.386       .  S
C3169      C3170   1.396       .  A
C3169      C3174   1.410       .  A
C3169      H3176   1.083       .  S
C3170      C3171   1.409       .  A
C3171      C3172   1.407       .  A
C3171      C3178   1.520       .  S
C3172      C3173   1.417       .  A
C3172      H3177   1.081       .  S
C3173      C3174   1.431       .  A
C3174      C3175   1.512       .  S
C3175      F3179   1.385       .  S
C3175      F3180   1.378       .  S
C3175      F3181   1.383       .  S
C3178      F3182   1.382       .  S
C3178      F3183   1.383       .  S
C3178      F3184   1.384       .  S
C3185      C3186   1.407       .  A
C3185      C3190   1.406       .  A
C3185      H3192   1.080       .  S
C3186      C3187   1.424       .  A
C3187      C3188   1.404       .  A
C3187      C3194   1.519       .  S
C3188      C3189   1.401       .  A
C3188      H3193   1.085       .  S
C3189      C3190   1.413       .  A
C3190      C3191   1.519       .  S
C3191      F3195   1.385       .  S
C3191      F3196   1.381       .  S
C3191      F3197   1.383       .  S
C3194      F3198   1.383       .  S
C3194      F3199   1.379       .  S
C3194      F3200   1.385       .  S
C3201      C3202   1.403       .  A
C3201      C3206   1.411       .  A
C3201      H3208   1.083       .  S
C3202      C3203   1.417       .  A
C3203      C3204   1.405       .  A
C3203      C3210   1.520       .  S
C3204      C3205   1.409       .  A
C3204      H3209   1.084       .  S
C3205      C3206   1.426       .  A
C3206      C3207   1.520       .  S
C3207      F3211   1.385       .  S
C3207      F3212   1.379       .  S
C3207      F3213   1.384       .  S
C3210      F3214   1.383       .  S
C3210      F3215   1.381       .  S
C3210      F3216   1.383       .  S
C3217      C3218   1.398       .  A
C3217      C3222   1.410       .  A
C3217      H3224   1.083       .  S
C3218      C3219   1.411       .  A
C3219      C3220   1.406       .  A
C3219      C3226   1.518       .  S
C3220      C3221   1.412       .  A
C3220      H3225   1.082   1_556  S
C3221      C3222   1.431       .  A
C3222      C3223   1.520       .  S
C3223      F3227   1.385       .  S
C3223      F3228   1.382       .  S
C3223      F3229   1.383   1_556  S
C3226      F3230   1.382       .  S
C3226      F3231   1.382       .  S
C3226      F3232   1.385       .  S
C3233      C3234   1.410       .  A
C3233      C3238   1.401       .  A
C3233      H3240   1.083       .  S
C3234      C3235   1.423       .  A
C3235      C3236   1.410       .  A
C3235      C3242   1.518       .  S
C3236      C3237   1.402       .  A
C3236      H3241   1.083       .  S
C3237      C3238   1.411       .  A
C3238      C3239   1.519       .  S
C3239      F3243   1.385       .  S
C3239      F3244   1.382       .  S
C3239      F3245   1.384       .  S
C3242      F3246   1.381       .  S
C3242      F3247   1.384       .  S
C3242      F3248   1.385       .  S
C3249      C3250   1.410       .  A
C3249      C3254   1.406       .  A
C3249      H3256   1.081       .  S
C3250      C3251   1.429       .  A
C3251      C3252   1.412       .  A
C3251      C3258   1.521       .  S
C3252      C3253   1.401       .  A
C3252      H3257   1.083       .  S
C3253      C3254   1.412       .  A
C3254      C3255   1.518       .  S
C3255      F3259   1.385       .  S
C3255      F3260   1.382       .  S
C3255      F3261   1.383       .  S
C3258      F3262   1.382       .  S
C3258      F3263   1.384   1_554  S
C3258      F3264   1.385       .  S
C3265      C3266   1.406       .  A
C3265      C3270   1.409       .  A
C3265      H3272   1.083       .  S
C3266      C3267   1.419       .  A
C3267      C3268   1.404       .  A
C3267      C3274   1.519       .  S
C3268      C3269   1.403       .  A
C3268      H3273   1.083       .  S
C3269      C3270   1.422       .  A
C3270      C3271   1.521       .  S
C3271      F3275   1.384       .  S
C3271      F3276   1.383       .  S
C3271      F3277   1.385       .  S
C3274      F3278   1.381       .  S
C3274      F3279   1.383       .  S
C3274      F3280   1.385       .  S
C3281      C3282   1.407       .  A
C3281      C3286   1.405       .  A
C3281      H3288   1.079       .  S
C3282      C3283   1.422       .  A
C3283      C3284   1.409       .  A
C3283      C3290   1.513       .  S
C3284      C3285   1.403       .  A
C3284      H3289   1.085       .  S
C3285      C3286   1.415       .  A
C3286      C3287   1.520       .  S
C3287      F3291   1.380       .  S
C3287      F3292   1.383       .  S
C3287      F3293   1.385       .  S
C3290      F3294   1.381       .  S
C3290      F3295   1.382       .  S
C3290      F3296   1.385       .  S
C3297      C3298   1.410       .  A
C3297      C3302   1.413       .  A
C3297      H3304   1.083       .  S
C3298      C3299   1.425       .  A
C3299      C3300   1.413       .  A
C3299      C3306   1.518       .  S
C3300      C3301   1.403       .  A
C3300      H3305   1.083       .  S
C3301      C3302   1.417       .  A
C3302      C3303   1.519       .  S
C3303      F3307   1.384       .  S
C3303      F3308   1.383       .  S
C3303      F3309   1.381       .  S
C3306      F3310   1.384       .  S
C3306      F3311   1.382       .  S
C3306      F3312   1.384       .  S
C3313      C3314   1.417       .  A
C3313      C3318   1.410       .  A
C3313      H3320   1.081       .  S
C3314      C3315   1.433       .  A
C3315      C3316   1.411       .  A
C3315      C3322   1.516       .  S
C3316      C3317   1.397       .  A
C3316      H3321   1.083       .  S
C3317      C3318   1.410       .  A
C3318      C3319   1.519       .  S
C3319      F3323   1.384       .  S
C3319      F3324   1.383       .  S
C3319      F3325   1.383       .  S
C3322      F3326   1.379       .  S
C3322      F3327   1.383       .  S
C3322      F3328   1.385       .  S
C3329      C3330   1.407       .  A
C3329      C3334   1.411       .  A
C3329      H3336   1.080       .  S
C3330      C3331   1.421       .  A
C3331      C3332   1.410       .  A
C3331      C3338   1.514       .  S
C3332      C3333   1.406       .  A
C3332      H3337   1.084       .  S
C3333      C3334   1.419       .  A
C3334      C3335   1.519       .  S
C3335      F3339   1.385       .  S
C3335      F3340   1.379       .  S
C3335      F3341   1.384       .  S
C3338      F3342   1.382       .  S
C3338      F3343   1.382       .  S
C3338      F3344   1.385       .  S
C3345      C3346   1.408       .  A
C3345      C3350   1.401       .  A
C3345      H3352   1.083       .  S
C3346      C3347   1.419       .  A
C3347      C3348   1.404       .  A
C3347      C3354   1.519       .  S
C3348      C3349   1.401       .  A
C3348      H3353   1.083       .  S
C3349      C3350   1.413       .  A
C3350      C3351   1.522       .  S
C3351      F3355   1.382       .  S
C3351      F3356   1.383       .  S
C3351      F3357   1.384       .  S
C3354      F3358   1.383       .  S
C3354      F3359   1.384   1_455  S
C3354      F3360   1.384       .  S
C3361      C3362   1.405       .  A
C3361      C3366   1.408       .  A
C3361      H3368   1.083       .  S
C3362      C3363   1.416       .  A
C3363      C3364   1.403       .  A
C3363      C3370   1.518       .  S
C3364      C3365   1.400       .  A
C3364      H3369   1.084       .  S
C3365      C3366   1.412       .  A
C3366      C3367   1.518       .  S
C3367      F3371   1.384       .  S
C3367      F3372   1.383       .  S
C3367      F3373   1.384       .  S
C3370      F3374   1.381       .  S
C3370      F3375   1.382       .  S
C3370      F3376   1.386       .  S
C3377      C3378   1.407       .  A
C3377      C3382   1.409       .  A
C3377      H3384   1.083       .  S
C3378      C3379   1.419       .  A
C3379      C3380   1.409       .  A
C3379      C3386   1.520       .  S
C3380      C3381   1.406       .  A
C3380      H3385   1.082       .  S
C3381      C3382   1.421       .  A
C3382      C3383   1.521       .  S
C3383      F3387   1.385       .  S
C3383      F3388   1.383       .  S
C3383      F3389   1.378       .  S
C3386      F3390   1.383       .  S
C3386      F3391   1.380       .  S
C3386      F3392   1.385       .  S
C3393      C3394   1.413       .  A
C3393      C3398   1.402       .  A
C3393      H3400   1.081       .  S
C3394      C3395   1.430       .  A
C3395      C3396   1.411       .  A
C3395      C3402   1.520       .  S
C3396      C3397   1.400       .  A
C3396      H3401   1.083       .  S
C3397      C3398   1.408       .  A
C3398      C3399   1.519       .  S
C3399      F3403   1.385       .  S
C3399      F3404   1.382       .  S
C3399      F3405   1.383       .  S
C3402      F3406   1.383       .  S
C3402      F3407   1.383       .  S
C3402      F3408   1.386       .  S
C3409      C3410   1.409       .  A
C3409      C3414   1.406       .  A
C3409      H3416   1.084   1_554  S
C3410      C3411   1.419       .  A
C3411      C3412   1.409       .  A
C3411      C3418   1.518       .  S
C3412      C3413   1.405       .  A
C3412      H3417   1.084       .  S
C3413      C3414   1.421       .  A
C3414      C3415   1.521       .  S
C3415      F3419   1.383       .  S
C3415      F3420   1.381       .  S
C3415      F3421   1.384       .  S
C3418      F3422   1.384       .  S
C3418      F3423   1.379   1_554  S
C3418      F3424   1.385       .  S
C3425      C3426   1.405       .  A
C3425      C3430   1.409       .  A
C3425      H3432   1.084       .  S
C3426      C3427   1.418       .  A
C3427      C3428   1.406       .  A
C3427      C3434   1.520       .  S
C3428      C3429   1.406       .  A
C3428      H3433   1.084       .  S
C3429      C3430   1.420       .  A
C3430      C3431   1.520       .  S
C3431      F3435   1.385       .  S
C3431      F3436   1.379       .  S
C3431      F3437   1.384       .  S
C3434      F3438   1.382       .  S
C3434      F3439   1.381       .  S
C3434      F3440   1.384       .  S
C3441      C3442   1.412       .  A
C3441      C3446   1.407       .  A
C3441      H3448   1.081       .  S
C3442      C3443   1.432       .  A
C3443      C3444   1.414       .  A
C3443      C3450   1.523       .  S
C3444      C3445   1.401       .  A
C3444      H3449   1.083       .  S
C3445      C3446   1.412       .  A
C3446      C3447   1.519       .  S
C3447      F3451   1.385       .  S
C3447      F3452   1.381       .  S
C3447      F3453   1.382       .  S
C3450      F3454   1.383       .  S
C3450      F3455   1.383       .  S
C3450      F3456   1.385       .  S
C3457      C3458   1.409       .  A
C3457      C3462   1.407       .  A
C3457      H3464   1.082       .  S
C3458      C3459   1.423       .  A
C3459      C3460   1.410       .  A
C3459      C3466   1.518       .  S
C3460      C3461   1.402       .  A
C3460      H3465   1.083       .  S
C3461      C3462   1.414       .  A
C3462      C3463   1.520       .  S
C3463      F3467   1.381       .  S
C3463      F3468   1.383       .  S
C3463      F3469   1.385       .  S
C3466      F3470   1.378       .  S
C3466      F3471   1.383       .  S
C3466      F3472   1.385       .  S
C3473      C3474   1.400       .  A
C3473      C3478   1.410       .  A
C3473      H3480   1.083       .  S
C3474      C3475   1.415       .  A
C3475      C3476   1.409       .  A
C3475      C3482   1.520       .  S
C3476      C3477   1.410       .  A
C3476      H3481   1.082       .  S
C3477      C3478   1.425       .  A
C3478      C3479   1.519       .  S
C3479      F3483   1.385       .  S
C3479      F3484   1.384       .  S
C3479      F3485   1.383       .  S
C3482      F3486   1.385       .  S
C3482      F3487   1.383       .  S
C3482      F3488   1.382       .  S
C3489      C3490   1.410       .  A
C3489      C3494   1.411       .  A
C3489      H3496   1.083   1_554  S
C3490      C3491   1.420       .  A
C3491      C3492   1.400       .  A
C3491      C3498   1.512       .  S
C3492      C3493   1.399       .  A
C3492      H3497   1.085       .  S
C3493      C3494   1.418       .  A
C3494      C3495   1.522       .  S
C3495      F3499   1.385       .  S
C3495      F3500   1.383       .  S
C3495      F3501   1.380       .  S
C3498      F3502   1.378       .  S
C3498      F3503   1.381       .  S
C3498      F3504   1.385       .  S
C3505      C3506   1.397       .  A
C3505      C3510   1.410       .  A
C3505      H3512   1.083       .  S
C3506      C3507   1.412       .  A
C3507      C3508   1.406       .  A
C3507      C3514   1.518       .  S
C3508      C3509   1.411       .  A
C3508      H3513   1.082       .  S
C3509      C3510   1.428       .  A
C3510      C3511   1.509       .  S
C3511      F3515   1.385       .  S
C3511      F3516   1.380       .  S
C3511      F3517   1.380       .  S
C3514      F3518   1.381       .  S
C3514      F3519   1.383       .  S
C3514      F3520   1.385       .  S
C3521      C3522   1.401       .  A
C3521      C3526   1.414       .  A
C3521      H3528   1.083       .  S
C3522      C3523   1.415       .  A
C3523      C3524   1.408       .  A
C3523      C3530   1.519       .  S
C3524      C3525   1.408       .  A
C3524      H3529   1.082       .  S
C3525      C3526   1.431       .  A
C3526      C3527   1.522       .  S
C3527      F3531   1.385       .  S
C3527      F3532   1.383       .  S
C3527      F3533   1.383       .  S
C3530      F3534   1.383       .  S
C3530      F3535   1.381       .  S
C3530      F3536   1.384       .  S
C3537      C3538   1.412       .  A
C3537      C3542   1.411       .  A
C3537      H3544   1.082       .  S
C3538      C3539   1.427       .  A
C3539      C3540   1.409       .  A
C3539      C3546   1.519       .  S
C3540      C3541   1.399       .  A
C3540      H3545   1.084       .  S
C3541      C3542   1.415       .  A
C3542      C3543   1.520       .  S
C3543      F3547   1.384       .  S
C3543      F3548   1.383       .  S
C3543      F3549   1.381       .  S
C3546      F3550   1.382       .  S
C3546      F3551   1.378       .  S
C3546      F3552   1.386       .  S
C3553      C3554   1.406       .  A
C3553      C3558   1.402       .  A
C3553      H3560   1.085       .  S
C3554      C3555   1.418       .  A
C3555      C3556   1.409       .  A
C3555      C3562   1.517       .  S
C3556      C3557   1.406       .  A
C3556      H3561   1.083       .  S
C3557      C3558   1.417       .  A
C3558      C3559   1.518       .  S
C3559      F3563   1.385       .  S
C3559      F3564   1.382       .  S
C3559      F3565   1.383       .  S
C3562      F3566   1.383       .  S
C3562      F3567   1.378       .  S
C3562      F3568   1.385       .  S
C3569      C3570   1.402       .  A
C3569      C3574   1.403       .  A
C3569      H3576   1.084       .  S
C3570      C3571   1.413       .  A
C3571      C3572   1.407       .  A
C3571      C3578   1.517       .  S
C3572      C3573   1.404       .  A
C3572      H3577   1.083       .  S
C3573      C3574   1.415       .  A
C3574      C3575   1.519       .  S
C3575      F3579   1.382       .  S
C3575      F3580   1.382       .  S
C3575      F3581   1.385       .  S
C3578      F3582   1.383       .  S
C3578      F3583   1.383       .  S
C3578      F3584   1.385       .  S
C3585      C3586   1.401       .  A
C3585      C3590   1.408       .  A
C3585      H3592   1.083       .  S
C3586      C3587   1.413       .  A
C3587      C3588   1.405       .  A
C3587      C3594   1.517       .  S
C3588      C3589   1.403       .  A
C3588      H3593   1.083       .  S
C3589      C3590   1.419       .  A
C3590      C3591   1.518       .  S
C3591      F3595   1.385       .  S
C3591      F3596   1.382       .  S
C3591      F3597   1.383       .  S
C3594      F3598   1.381       .  S
C3594      F3599   1.383       .  S
C3594      F3600   1.384       .  S
C3601      C3602   1.402       .  A
C3601      C3606   1.406       .  A
C3601      H3608   1.083       .  S
C3602      C3603   1.415       .  A
C3603      C3604   1.399       .  A
C3603      C3610   1.521       .  S
C3604      C3605   1.402       .  A
C3604      H3609   1.084       .  S
C3605      C3606   1.413       .  A
C3606      C3607   1.517       .  S
C3607      F3611   1.384       .  S
C3607      F3612   1.383       .  S
C3607      F3613   1.384   1_554  S
C3610      F3614   1.382       .  S
C3610      F3615   1.382       .  S
C3610      F3616   1.385       .  S
C3617      C3618   1.400       .  A
C3617      C3622   1.407       .  A
C3617      H3624   1.084       .  S
C3618      C3619   1.412       .  A
C3619      C3620   1.406       .  A
C3619      C3626   1.519       .  S
C3620      C3621   1.410       .  A
C3620      H3625   1.082       .  S
C3621      C3622   1.426       .  A
C3622      C3623   1.520       .  S
C3623      F3627   1.385       .  S
C3623      F3628   1.382       .  S
C3623      F3629   1.383       .  S
C3626      F3630   1.382       .  S
C3626      F3631   1.383       .  S
C3626      F3632   1.385       .  S
C3633      C3634   1.412       .  A
C3633      C3638   1.409       .  A
C3633      H3640   1.082       .  S
C3634      C3635   1.433       .  A
C3635      C3636   1.414       .  A
C3635      C3642   1.521       .  S
C3636      C3637   1.399       .  A
C3636      H3641   1.083       .  S
C3637      C3638   1.413       .  A
C3638      C3639   1.520       .  S
C3639      F3643   1.382       .  S
C3639      F3644   1.383       .  S
C3639      F3645   1.385       .  S
C3642      F3646   1.383       .  S
C3642      F3647   1.384       .  S
C3642      F3648   1.385       .  S
C3649      C3650   1.398       .  A
C3649      C3654   1.398       .  A
C3649      H3656   1.085       .  S
C3650      C3651   1.415       .  A
C3651      C3652   1.406       .  A
C3651      C3658   1.519       .  S
C3652      C3653   1.403       .  A
C3652      H3657   1.084       .  S
C3653      C3654   1.415       .  A
C3654      C3655   1.515       .  S
C3655      F3659   1.384       .  S
C3655      F3660   1.382       .  S
C3655      F3661   1.383       .  S
C3658      F3662   1.382       .  S
C3658      F3663   1.383       .  S
C3658      F3664   1.384       .  S
C3665      C3666   1.403       .  A
C3665      C3670   1.398       .  A
C3665      H3672   1.084       .  S
C3666      C3667   1.412       .  A
C3667      C3668   1.405       .  A
C3667      C3674   1.516       .  S
C3668      C3669   1.404       .  A
C3668      H3673   1.083       .  S
C3669      C3670   1.412       .  A
C3670      C3671   1.521       .  S
C3671      F3675   1.385       .  S
C3671      F3676   1.382       .  S
C3671      F3677   1.382       .  S
C3674      F3678   1.383       .  S
C3674      F3679   1.382       .  S
C3674      F3680   1.385       .  S
C3681      C3682   1.405       .  A
C3681      C3686   1.403       .  A
C3681      H3688   1.084       .  S
C3682      C3683   1.412       .  A
C3683      C3684   1.406       .  A
C3683      C3690   1.517       .  S
C3684      C3685   1.404       .  A
C3684      H3689   1.083       .  S
C3685      C3686   1.413       .  A
C3686      C3687   1.518       .  S
C3687      F3691   1.385       .  S
C3687      F3692   1.382       .  S
C3687      F3693   1.382       .  S
C3690      F3694   1.383       .  S
C3690      F3695   1.383       .  S
C3690      F3696   1.384       .  S
C3697      C3698   1.409       .  A
C3697      C3702   1.400       .  A
C3697      H3704   1.082       .  S
C3698      C3699   1.426       .  A
C3699      C3700   1.407       .  A
C3699      C3706   1.522       .  S
C3700      C3701   1.400       .  A
C3700      H3705   1.083       .  S
C3701      C3702   1.411       .  A
C3702      C3703   1.521       .  S
C3703      F3707   1.384       .  S
C3703      F3708   1.383       .  S
C3703      F3709   1.381       .  S
C3706      F3710   1.383       .  S
C3706      F3711   1.383       .  S
C3706      F3712   1.385       .  S
C3713      C3714   1.398       .  A
C3713      C3718   1.407       .  A
C3713      H3720   1.083       .  S
C3714      C3715   1.411       .  A
C3715      C3716   1.404       .  A
C3715      C3722   1.517       .  S
C3716      C3717   1.409       .  A
C3716      H3721   1.083       .  S
C3717      C3718   1.430       .  A
C3718      C3719   1.523       .  S
C3719      F3723   1.386       .  S
C3719      F3724   1.383       .  S
C3719      F3725   1.382       .  S
C3722      F3726   1.383       .  S
C3722      F3727   1.382       .  S
C3722      F3728   1.385       .  S
C3729      C3730   1.410       .  A
C3729      C3734   1.406       .  A
C3729      H3736   1.078       .  S
C3730      C3731   1.430       .  A
C3731      C3732   1.412       .  A
C3731      C3738   1.520       .  S
C3732      C3733   1.401       .  A
C3732      H3737   1.083       .  S
C3733      C3734   1.412       .  A
C3734      C3735   1.520       .  S
C3735      F3739   1.384       .  S
C3735      F3740   1.383       .  S
C3735      F3741   1.381       .  S
C3738      F3742   1.383       .  S
C3738      F3743   1.383       .  S
C3738      F3744   1.385       .  S
C3745      C3746   1.416       .  A
C3745      C3750   1.406       .  A
C3745      H3752   1.082       .  S
C3746      C3747   1.429       .  A
C3747      C3748   1.407       .  A
C3747      C3754   1.517       .  S
C3748      C3749   1.397       .  A
C3748      H3753   1.083       .  S
C3749      C3750   1.409       .  A
C3750      C3751   1.520       .  S
C3751      F3755   1.385       .  S
C3751      F3756   1.382       .  S
C3751      F3757   1.382       .  S
C3754      F3758   1.383   1_565  S
C3754      F3759   1.382       .  S
C3754      F3760   1.385       .  S
C3761      C3762   1.398       .  A
C3761      C3766   1.412       .  A
C3761      H3768   1.083       .  S
C3762      C3763   1.409       .  A
C3763      C3764   1.403       .  A
C3763      C3770   1.521       .  S
C3764      C3765   1.412       .  A
C3764      H3769   1.075       .  S
C3765      C3766   1.431       .  A
C3766      C3767   1.516       .  S
C3767      F3771   1.386       .  S
C3767      F3772   1.381       .  S
C3767      F3773   1.382       .  S
C3770      F3774   1.383       .  S
C3770      F3775   1.382       .  S
C3770      F3776   1.384       .  S
C3777      C3778   1.407       .  A
C3777      C3782   1.405       .  A
C3777      H3784   1.083       .  S
C3778      C3779   1.417       .  A
C3779      C3780   1.405       .  A
C3779      C3786   1.516       .  S
C3780      C3781   1.404       .  A
C3780      H3785   1.085       .  S
C3781      C3782   1.416       .  A
C3782      C3783   1.521       .  S
C3783      F3787   1.384       .  S
C3783      F3788   1.380       .  S
C3783      F3789   1.384       .  S
C3786      F3790   1.381   1_565  S
C3786      F3791   1.382   1_565  S
C3786      F3792   1.385       .  S
C3793      C3794   1.413       .  A
C3793      C3798   1.400       .  A
C3793      H3800   1.082       .  S
C3794      C3795   1.429       .  A
C3795      C3796   1.403       .  A
C3795      C3802   1.523       .  S
C3796      C3797   1.397       .  A
C3796      H3801   1.083       .  S
C3797      C3798   1.408       .  A
C3798      C3799   1.520       .  S
C3799      F3803   1.385       .  S
C3799      F3804   1.382       .  S
C3799      F3805   1.382       .  S
C3802      F3806   1.383       .  S
C3802      F3807   1.383       .  S
C3802      F3808   1.385       .  S
C3809      C3810   1.399       .  A
C3809      C3814   1.412       .  A
C3809      H3816   1.083       .  S
C3810      C3811   1.417       .  A
C3811      C3812   1.406       .  A
C3811      C3818   1.520       .  S
C3812      C3813   1.407       .  A
C3812      H3817   1.082       .  S
C3813      C3814   1.428       .  A
C3814      C3815   1.517       .  S
C3815      F3819   1.385       .  S
C3815      F3820   1.382       .  S
C3815      F3821   1.383       .  S
C3818      F3822   1.381       .  S
C3818      F3823   1.381       .  S
C3818      F3824   1.385       .  S
C3825      C3826   1.404       .  A
C3825      C3830   1.404       .  A
C3825      H3832   1.083       .  S
C3826      C3827   1.418       .  A
C3827      C3828   1.413       .  A
C3827      C3834   1.521       .  S
C3828      C3829   1.412       .  A
C3828      H3833   1.082       .  S
C3829      C3830   1.422       .  A
C3830      C3831   1.521       .  S
C3831      F3835   1.385       .  S
C3831      F3836   1.382       .  S
C3831      F3837   1.383       .  S
C3834      F3838   1.379       .  S
C3834      F3839   1.384       .  S
C3834      F3840   1.385       .  S
C3841      C3842   1.408       .  A
C3841      C3846   1.409       .  A
C3841      H3848   1.082       .  S
C3842      C3843   1.432       .  A
C3843      C3844   1.412       .  A
C3843      C3850   1.522       .  S
C3844      C3845   1.400       .  A
C3844      H3849   1.083       .  S
C3845      C3846   1.415       .  A
C3846      C3847   1.517       .  S
C3847      F3851   1.384       .  S
C3847      F3852   1.381       .  S
C3847      F3853   1.383       .  S
C3850      F3854   1.383       .  S
C3850      F3855   1.384       .  S
C3850      F3856   1.385       .  S
C3857      C3858   1.407       .  A
C3857      C3862   1.411       .  A
C3857      H3864   1.083       .  S
C3858      C3859   1.425       .  A
C3859      C3860   1.412       .  A
C3859      C3866   1.523   1_545  S
C3860      C3861   1.406       .  A
C3860      H3865   1.083       .  S
C3861      C3862   1.420       .  A
C3862      C3863   1.522       .  S
C3863      F3867   1.384       .  S
C3863      F3868   1.380       .  S
C3863      F3869   1.384       .  S
C3866      F3870   1.378       .  S
C3866      F3871   1.384       .  S
C3866      F3872   1.385       .  S
C3873      C3874   1.406       .  A
C3873      C3878   1.413       .  A
C3873      H3880   1.083       .  S
C3874      C3875   1.416       .  A
C3875      C3876   1.411       .  A
C3875      C3882   1.519       .  S
C3876      C3877   1.409       .  A
C3876      H3881   1.081       .  S
C3877      C3878   1.423       .  A
C3878      C3879   1.520       .  S
C3879      F3883   1.385       .  S
C3879      F3884   1.382       .  S
C3879      F3885   1.384       .  S
C3882      F3886   1.380       .  S
C3882      F3887   1.383       .  S
C3882      F3888   1.385       .  S
C3889      C3890   1.410       .  A
C3889      C3894   1.406       .  A
C3889      H3896   1.082       .  S
C3890      C3891   1.427       .  A
C3891      C3892   1.406       .  A
C3891      C3898   1.519       .  S
C3892      C3893   1.397       .  A
C3892      H3897   1.083       .  S
C3893      C3894   1.412       .  A
C3894      C3895   1.519       .  S
C3895      F3899   1.385       .  S
C3895      F3900   1.383       .  S
C3895      F3901   1.382       .  S
C3898      F3902   1.383       .  S
C3898      F3903   1.381       .  S
C3898      F3904   1.385       .  S
C3905      C3906   1.404       .  A
C3905      C3910   1.411       .  A
C3905      H3912   1.083       .  S
C3906      C3907   1.420       .  A
C3907      C3908   1.406       .  A
C3907      C3914   1.519       .  S
C3908      C3909   1.403       .  A
C3908      H3913   1.084       .  S
C3909      C3910   1.421       .  A
C3910      C3911   1.519       .  S
C3911      F3915   1.384       .  S
C3911      F3916   1.384       .  S
C3911      F3917   1.382       .  S
C3914      F3918   1.383       .  S
C3914      F3919   1.381       .  S
C3914      F3920   1.385       .  S
C3921      C3922   1.401       .  A
C3921      C3926   1.407       .  A
C3921      H3928   1.083       .  S
C3922      C3923   1.413       .  A
C3923      C3924   1.405       .  A
C3923      C3930   1.520       .  S
C3924      C3925   1.410       .  A
C3924      H3929   1.081       .  S
C3925      C3926   1.424       .  A
C3926      C3927   1.519       .  S
C3927      F3931   1.385       .  S
C3927      F3932   1.384       .  S
C3927      F3933   1.382       .  S
C3930      F3934   1.383       .  S
C3930      F3935   1.380       .  S
C3930      F3936   1.385       .  S
C3937      C3938   1.401       .  A
C3937      C3942   1.409       .  A
C3937      H3944   1.083       .  S
C3938      C3939   1.414       .  A
C3939      C3940   1.408       .  A
C3939      C3946   1.518       .  S
C3940      C3941   1.411       .  A
C3940      H3945   1.082       .  S
C3941      C3942   1.427       .  A
C3942      C3943   1.522       .  S
C3943      F3947   1.385       .  S
C3943      F3948   1.383       .  S
C3943      F3949   1.384       .  S
C3946      F3950   1.382       .  S
C3946      F3951   1.382       .  S
C3946      F3952   1.385       .  S
C3953      C3954   1.411       .  A
C3953      C3958   1.409       .  A
C3953      H3960   1.083       .  S
C3954      C3955   1.417       .  A
C3955      C3956   1.401       .  A
C3955      C3962   1.518       .  S
C3956      C3957   1.402       .  A
C3956      H3961   1.084       .  S
C3957      C3958   1.414       .  A
C3958      C3959   1.520       .  S
C3959      F3963   1.381       .  S
C3959      F3964   1.383       .  S
C3959      F3965   1.384       .  S
C3962      F3966   1.385       .  S
C3962      F3967   1.382       .  S
C3962      F3968   1.384       .  S
C3969      C3970   1.411       .  A
C3969      C3974   1.407       .  A
C3969      H3976   1.082       .  S
C3970      C3971   1.434       .  A
C3971      C3972   1.410       .  A
C3971      C3978   1.523       .  S
C3972      C3973   1.398       .  A
C3972      H3977   1.083       .  S
C3973      C3974   1.412       .  A
C3974      C3975   1.519       .  S
C3975      F3979   1.385       .  S
C3975      F3980   1.382       .  S
C3975      F3981   1.382       .  S
C3978      F3982   1.383       .  S
C3978      F3983   1.383       .  S
C3978      F3984   1.385       .  S
C3985      C3986   1.406       .  A
C3985      C3990   1.404       .  A
C3985      H3992   1.084       .  S
C3986      C3987   1.416       .  A
C3987      C3988   1.409       .  A
C3987      C3994   1.516       .  S
C3988      C3989   1.404       .  A
C3988      H3993   1.083       .  S
C3989      C3990   1.413       .  A
C3990      C3991   1.521       .  S
C3991      F3995   1.384       .  S
C3991      F3996   1.383       .  S
C3991      F3997   1.382       .  S
C3994      F3998   1.383       .  S
C3994      F3999   1.383       .  S
C3994      F4000   1.385       .  S
C4001      C4002   1.403       .  A
C4001      C4006   1.407       .  A
C4001      H4008   1.084       .  S
C4002      C4003   1.415       .  A
C4003      C4004   1.409       .  A
C4003      C4010   1.518       .  S
C4004      C4005   1.404       .  A
C4004      H4009   1.083       .  S
C4005      C4006   1.416       .  A
C4006      C4007   1.519       .  S
C4007      F4011   1.385       .  S
C4007      F4012   1.381       .  S
C4007      F4013   1.383       .  S
C4010      F4014   1.383       .  S
C4010      F4015   1.384       .  S
C4010      F4016   1.384       .  S
C4017      C4018   1.405       .  A
C4017      C4022   1.408       .  A
C4017      H4024   1.083       .  S
C4018      C4019   1.416       .  A
C4019      C4020   1.407       .  A
C4019      C4026   1.518       .  S
C4020      C4021   1.402       .  A
C4020      H4025   1.084       .  S
C4021      C4022   1.414       .  A
C4022      C4023   1.516       .  S
C4023      F4027   1.385       .  S
C4023      F4028   1.383       .  S
C4023      F4029   1.382       .  S
C4026      F4030   1.385       .  S
C4026      F4031   1.383       .  S
C4026      F4032   1.381       .  S
C4033      C4034   1.412       .  A
C4033      C4038   1.400       .  A
C4033      H4040   1.082       .  S
C4034      C4035   1.429       .  A
C4035      C4036   1.409       .  A
C4035      C4042   1.521       .  S
C4036      C4037   1.399       .  A
C4036      H4041   1.083       .  S
C4037      C4038   1.409       .  A
C4038      C4039   1.521       .  S
C4039      F4043   1.385       .  S
C4039      F4044   1.382       .  S
C4039      F4045   1.382       .  S
C4042      F4046   1.383       .  S
C4042      F4047   1.382       .  S
C4042      F4048   1.386       .  S
C4049      C4050   1.405       .  A
C4049      C4054   1.405       .  A
C4049      H4056   1.084       .  S
C4050      C4051   1.412       .  A
C4051      C4052   1.407       .  A
C4051      C4058   1.516       .  S
C4052      C4053   1.404       .  A
C4052      H4057   1.083       .  S
C4053      C4054   1.414       .  A
C4054      C4055   1.521       .  S
C4055      F4059   1.383       .  S
C4055      F4060   1.381       .  S
C4055      F4061   1.383       .  S
C4058      F4062   1.383       .  S
C4058      F4063   1.383       .  S
C4058      F4064   1.385       .  S
C4065      C4066   1.411       .  A
C4065      C4070   1.401       .  A
C4065      H4072   1.082       .  S
C4066      C4067   1.431       .  A
C4067      C4068   1.405       .  A
C4067      C4074   1.523       .  S
C4068      C4069   1.396       .  A
C4068      H4073   1.083       .  S
C4069      C4070   1.408       .  A
C4070      C4071   1.519       .  S
C4071      F4075   1.385       .  S
C4071      F4076   1.382       .  S
C4071      F4077   1.383       .  S
C4074      F4078   1.383       .  S
C4074      F4079   1.382       .  S
C4074      F4080   1.385       .  S
C4081      C4082   1.402       .  A
C4081      C4086   1.408       .  A
C4081      H4088   1.083       .  S
C4082      C4083   1.413       .  A
C4083      C4084   1.405       .  A
C4083      C4090   1.518       .  S
C4084      C4085   1.403       .  A
C4084      H4089   1.083       .  S
C4085      C4086   1.417       .  A
C4086      C4087   1.520       .  S
C4087      F4091   1.385       .  S
C4087      F4092   1.383       .  S
C4087      F4093   1.382       .  S
C4090      F4094   1.383       .  S
C4090      F4095   1.383   1_455  S
C4090      F4096   1.384       .  S
C4097      C4098   1.406       .  A
C4097      C4102   1.401       .  A
C4097      H4104   1.084       .  S
C4098      C4099   1.411       .  A
C4099      C4100   1.409       .  A
C4099      C4106   1.517       .  S
C4100      C4101   1.408       .  A
C4100      H4105   1.083       .  S
C4101      C4102   1.413       .  A
C4102      C4103   1.521       .  S
C4103      F4107   1.385       .  S
C4103      F4108   1.382       .  S
C4103      F4109   1.381       .  S
C4106      F4110   1.382       .  S
C4106      F4111   1.381       .  S
C4106      F4112   1.384       .  S
C4113      C4114   1.404       .  A
C4113      C4118   1.410       .  A
C4113      H4120   1.083       .  S
C4114      C4115   1.411       .  A
C4115      C4116   1.401       .  A
C4115      C4122   1.517       .  S
C4116      C4117   1.402       .  A
C4116      H4121   1.084       .  S
C4117      C4118   1.417       .  A
C4118      C4119   1.517       .  S
C4119      F4123   1.382       .  S
C4119      F4124   1.383       .  S
C4119      F4125   1.385       .  S
C4122      F4126   1.382       .  S
C4122      F4127   1.384       .  S
C4122      F4128   1.385       .  S
C4129      C4130   1.410       .  A
C4129      C4134   1.400       .  A
C4129      H4136   1.084       .  S
C4130      C4131   1.422       .  A
C4131      C4132   1.410       .  A
C4131      C4138   1.519       .  S
C4132      C4133   1.406       .  A
C4132      H4137   1.083       .  S
C4133      C4134   1.415       .  A
C4134      C4135   1.518       .  S
C4135      F4139   1.384       .  S
C4135      F4140   1.381       .  S
C4135      F4141   1.383       .  S
C4138      F4142   1.384       .  S
C4138      F4143   1.382       .  S
C4138      F4144   1.385       .  S
C4145      C4146   1.401       .  A
C4145      C4150   1.407       .  A
C4145      H4152   1.083       .  S
C4146      C4147   1.426       .  A
C4147      C4148   1.404       .  A
C4147      C4154   1.521       .  S
C4148      C4149   1.398       .  A
C4148      H4153   1.083       .  S
C4149      C4150   1.420       .  A
C4150      C4151   1.519       .  S
C4151      F4155   1.385       .  S
C4151      F4156   1.381       .  S
C4151      F4157   1.382       .  S
C4154      F4158   1.382       .  S
C4154      F4159   1.378       .  S
C4154      F4160   1.385       .  S
C4161      C4162   1.409       .  A
C4161      C4166   1.401       .  A
C4161      H4168   1.083       .  S
C4162      C4163   1.425       .  A
C4163      C4164   1.406       .  A
C4163      C4170   1.520       .  S
C4164      C4165   1.399       .  A
C4164      H4169   1.083       .  S
C4165      C4166   1.412       .  A
C4166      C4167   1.520       .  S
C4167      F4171   1.382       .  S
C4167      F4172   1.383       .  S
C4167      F4173   1.385       .  S
C4170      F4174   1.383       .  S
C4170      F4175   1.381       .  S
C4170      F4176   1.384       .  S
C4177      C4178   1.401       .  A
C4177      C4182   1.402       .  A
C4177      H4184   1.083       .  S
C4178      C4179   1.417       .  A
C4179      C4180   1.407       .  A
C4179      C4186   1.517       .  S
C4180      C4181   1.401       .  A
C4180      H4185   1.083       .  S
C4181      C4182   1.414       .  A
C4182      C4183   1.519       .  S
C4183      F4187   1.384       .  S
C4183      F4188   1.382       .  S
C4183      F4189   1.383       .  S
C4186      F4190   1.382       .  S
C4186      F4191   1.385       .  S
C4186      F4192   1.382       .  S
C4193      C4194   1.403       .  A
C4193      C4198   1.401       .  A
C4193      H4200   1.083       .  S
C4194      C4195   1.411       .  A
C4195      C4196   1.405       .  A
C4195      C4202   1.517       .  S
C4196      C4197   1.404       .  A
C4196      H4201   1.083       .  S
C4197      C4198   1.413       .  A
C4198      C4199   1.520       .  S
C4199      F4203   1.385       .  S
C4199      F4204   1.383       .  S
C4199      F4205   1.382       .  S
C4202      F4206   1.383       .  S
C4202      F4207   1.383       .  S
C4202      F4208   1.384       .  S
C4209      C4210   1.408       .  A
C4209      C4214   1.408       .  A
C4209      H4216   1.083       .  S
C4210      C4211   1.413       .  A
C4211      C4212   1.400       .  A
C4211      C4218   1.519       .  S
C4212      C4213   1.404       .  A
C4212      H4217   1.084       .  S
C4213      C4214   1.409       .  A
C4214      C4215   1.516       .  S
C4215      F4219   1.384       .  S
C4215      F4220   1.384       .  S
C4215      F4221   1.384       .  S
C4218      F4222   1.381       .  S
C4218      F4223   1.382       .  S
C4218      F4224   1.385       .  S
C4225      C4226   1.413       .  A
C4225      C4230   1.406       .  A
C4225      H4232   1.082       .  S
C4226      C4227   1.429       .  A
C4227      C4228   1.403       .  A
C4227      C4234   1.522       .  S
C4228      C4229   1.396       .  A
C4228      H4233   1.083       .  S
C4229      C4230   1.410       .  A
C4230      C4231   1.519       .  S
C4231      F4235   1.383       .  S
C4231      F4236   1.382       .  S
C4231      F4237   1.385       .  S
C4234      F4238   1.382       .  S
C4234      F4239   1.383       .  S
C4234      F4240   1.385       .  S
C4241      C4242   1.402       .  A
C4241      C4246   1.407       .  A
C4241      H4248   1.083       .  S
C4242      C4243   1.413       .  A
C4243      C4244   1.402       .  A
C4243      C4250   1.521       .  S
C4244      C4245   1.408       .  A
C4244      H4249   1.083       .  S
C4245      C4246   1.421       .  A
C4246      C4247   1.521       .  S
C4247      F4251   1.385       .  S
C4247      F4252   1.382       .  S
C4247      F4253   1.384       .  S
C4250      F4254   1.381       .  S
C4250      F4255   1.383       .  S
C4250      F4256   1.385       .  S
C4257      C4258   1.410       .  A
C4257      C4262   1.401       .  A
C4257      H4264   1.084       .  S
C4258      C4259   1.432       .  A
C4259      C4260   1.410       .  A
C4259      C4266   1.524       .  S
C4260      C4261   1.400       .  A
C4260      H4265   1.083       .  S
C4261      C4262   1.413       .  A
C4262      C4263   1.519       .  S
C4263      F4267   1.384       .  S
C4263      F4268   1.382       .  S
C4263      F4269   1.383       .  S
C4266      F4270   1.383   1_455  S
C4266      F4271   1.384       .  S
C4266      F4272   1.385       .  S
C4273      C4274   1.412       .  A
C4273      C4278   1.407       .  A
C4273      H4280   1.082       .  S
C4274      C4275   1.423       .  A
C4275      C4276   1.406       .  A
C4275      C4282   1.518       .  S
C4276      C4277   1.401       .  A
C4276      H4281   1.084       .  S
C4277      C4278   1.412       .  A
C4278      C4279   1.520       .  S
C4279      F4283   1.382       .  S
C4279      F4284   1.383       .  S
C4279      F4285   1.384       .  S
C4282      F4286   1.383       .  S
C4282      F4287   1.384       .  S
C4282      F4288   1.385       .  S
C4289      C4290   1.409       .  A
C4289      C4294   1.404       .  A
C4289      H4296   1.082       .  S
C4290      C4291   1.418       .  A
C4291      C4292   1.406       .  A
C4291      C4298   1.519       .  S
C4292      C4293   1.405       .  A
C4292      H4297   1.084       .  S
C4293      C4294   1.414       .  A
C4294      C4295   1.520       .  S
C4295      F4299   1.384       .  S
C4295      F4300   1.383       .  S
C4295      F4301   1.380       .  S
C4298      F4302   1.384       .  S
C4298      F4303   1.380       .  S
C4298      F4304   1.385       .  S
C4305      C4306   1.403       .  A
C4305      C4310   1.400       .  A
C4305      H4312   1.084       .  S
C4306      C4307   1.414       .  A
C4307      C4308   1.408       .  A
C4307      C4314   1.516       .  S
C4308      C4309   1.405       .  A
C4308      H4313   1.083       .  S
C4309      C4310   1.414       .  A
C4310      C4311   1.520       .  S
C4311      F4315   1.382       .  S
C4311      F4316   1.385       .  S
C4311      F4317   1.382       .  S
C4314      F4318   1.383   1_455  S
C4314      F4319   1.383       .  S
C4314      F4320   1.385       .  S
C4321      C4322   1.399       .  A
C4321      C4326   1.411       .  A
C4321      H4328   1.084       .  S
C4322      C4323   1.422       .  A
C4323      C4324   1.405       .  A
C4323      C4330   1.518       .  S
C4324      C4325   1.409       .  A
C4324      H4329   1.082       .  S
C4325      C4326   1.437       .  A
C4326      C4327   1.520       .  S
C4327      F4331   1.385       .  S
C4327      F4332   1.380       .  S
C4327      F4333   1.383       .  S
C4330      F4334   1.385       .  S
C4330      F4335   1.380       .  S
C4330      F4336   1.385       .  S
C4337      C4338   1.411       .  A
C4337      C4342   1.406       .  A
C4337      H4344   1.082       .  S
C4338      C4339   1.434       .  A
C4339      C4340   1.404       .  A
C4339      C4346   1.526       .  S
C4340      C4341   1.394       .  A
C4340      H4345   1.083       .  S
C4341      C4342   1.409       .  A
C4342      C4343   1.519       .  S
C4343      F4347   1.384       .  S
C4343      F4348   1.383       .  S
C4343      F4349   1.383       .  S
C4346      F4350   1.383       .  S
C4346      F4351   1.383       .  S
C4346      F4352   1.385       .  S
C4353      C4354   1.409       .  A
C4353      C4358   1.404       .  A
C4353      H4360   1.082       .  S
C4354      C4355   1.430       .  A
C4355      C4356   1.402       .  A
C4355      C4362   1.523       .  S
C4356      C4357   1.395       .  A
C4356      H4361   1.083       .  S
C4357      C4358   1.412       .  A
C4358      C4359   1.519       .  S
C4359      F4363   1.385       .  S
C4359      F4364   1.383       .  S
C4359      F4365   1.382       .  S
C4362      F4366   1.382       .  S
C4362      F4367   1.383       .  S
C4362      F4368   1.386       .  S
C4369      C4370   1.404       .  A
C4369      C4374   1.405       .  A
C4369      H4376   1.084       .  S
C4370      C4371   1.416       .  A
C4371      C4372   1.408       .  A
C4371      C4378   1.519       .  S
C4372      C4373   1.406       .  A
C4372      H4377   1.084       .  S
C4373      C4374   1.415       .  A
C4374      C4375   1.519       .  S
C4375      F4379   1.385       .  S
C4375      F4380   1.382       .  S
C4375      F4381   1.382       .  S
C4378      F4382   1.383       .  S
C4378      F4383   1.382       .  S
C4378      F4384   1.383       .  S
C4385      C4386   1.406       .  A
C4385      C4390   1.407       .  A
C4385      H4392   1.083       .  S
C4386      C4387   1.430       .  A
C4387      C4388   1.402       .  A
C4387      C4394   1.524       .  S
C4388      C4389   1.396       .  A
C4388      H4393   1.083       .  S
C4389      C4390   1.414       .  A
C4390      C4391   1.517       .  S
C4391      F4395   1.385       .  S
C4391      F4396   1.383       .  S
C4391      F4397   1.382       .  S
C4394      F4398   1.383       .  S
C4394      F4399   1.383       .  S
C4394      F4400   1.385       .  S
C4401      C4402   1.403       .  A
C4401      C4406   1.402       .  A
C4401      H4408   1.084       .  S
C4402      C4403   1.411       .  A
C4403      C4404   1.407       .  A
C4403      C4410   1.516       .  S
C4404      C4405   1.406       .  A
C4404      H4409   1.083       .  S
C4405      C4406   1.415       .  A
C4406      C4407   1.519       .  S
C4407      F4411   1.385       .  S
C4407      F4412   1.382       .  S
C4407      F4413   1.382       .  S
C4410      F4414   1.383       .  S
C4410      F4415   1.383       .  S
C4410      F4416   1.385       .  S
C4417      C4418   1.401       .  A
C4417      C4422   1.405       .  A
C4417      H4424   1.084       .  S
C4418      C4419   1.413       .  A
C4419      C4420   1.405       .  A
C4419      C4426   1.518       .  S
C4420      C4421   1.402       .  A
C4420      H4425   1.083       .  S
C4421      C4422   1.416       .  A
C4422      C4423   1.519       .  S
C4423      F4427   1.382       .  S
C4423      F4428   1.383       .  S
C4423      F4429   1.384       .  S
C4426      F4430   1.383       .  S
C4426      F4431   1.383       .  S
C4426      F4432   1.384       .  S
C4433      C4434   1.407       .  A
C4433      C4438   1.400       .  A
C4433      H4440   1.082       .  S
C4434      C4435   1.428       .  A
C4435      C4436   1.404       .  A
C4435      C4442   1.524       .  S
C4436      C4437   1.398       .  A
C4436      H4441   1.083       .  S
C4437      C4438   1.411       .  A
C4438      C4439   1.520       .  S
C4439      F4443   1.385       .  S
C4439      F4444   1.382       .  S
C4439      F4445   1.383       .  S
C4442      F4446   1.384       .  S
C4442      F4447   1.384       .  S
C4442      F4448   1.385       .  S
C4449      C4450   1.410       .  A
C4449      C4454   1.406       .  A
C4449      H4456   1.082       .  S
C4450      C4451   1.433       .  A
C4451      C4452   1.409       .  A
C4451      C4458   1.525       .  S
C4452      C4453   1.397       .  A
C4452      H4457   1.083       .  S
C4453      C4454   1.411       .  A
C4454      C4455   1.519       .  S
C4455      F4459   1.384       .  S
C4455      F4460   1.383       .  S
C4455      F4461   1.382       .  S
C4458      F4462   1.382       .  S
C4458      F4463   1.383       .  S
C4458      F4464   1.385       .  S
C4465      C4466   1.401       .  A
C4465      C4470   1.410       .  A
C4465      H4472   1.083       .  S
C4466      C4467   1.420       .  A
C4467      C4468   1.404       .  A
C4467      C4474   1.520       .  S
C4468      C4469   1.400       .  A
C4468      H4473   1.083       .  S
C4469      C4470   1.418       .  A
C4470      C4471   1.518       .  S
C4471      F4475   1.383       .  S
C4471      F4476   1.384       .  S
C4471      F4477   1.382       .  S
C4474      F4478   1.384       .  S
C4474      F4479   1.383       .  S
C4474      F4480   1.384       .  S
C4481      C4482   1.399       .  A
C4481      C4486   1.409       .  A
C4481      H4488   1.083       .  S
C4482      C4483   1.415       .  A
C4483      C4484   1.410       .  A
C4483      C4490   1.517       .  S
C4484      C4485   1.407       .  A
C4484      H4489   1.083       .  S
C4485      C4486   1.425       .  A
C4486      C4487   1.521       .  S
C4487      F4491   1.385       .  S
C4487      F4492   1.381       .  S
C4487      F4493   1.383       .  S
C4490      F4494   1.383       .  S
C4490      F4495   1.382       .  S
C4490      F4496   1.385       .  S
C4497      C4498   1.413       .  A
C4497      C4502   1.403       .  A
C4497      H4504   1.082       .  S
C4498      C4499   1.427       .  A
C4499      C4500   1.409       .  A
C4499      C4506   1.520       .  S
C4500      C4501   1.401       .  A
C4500      H4505   1.083       .  S
C4501      C4502   1.410       .  A
C4502      C4503   1.520       .  S
C4503      F4507   1.385       .  S
C4503      F4508   1.382       .  S
C4503      F4509   1.383       .  S
C4506      F4510   1.381       .  S
C4506      F4511   1.383       .  S
C4506      F4512   1.386       .  S
C4513      C4514   1.409       .  A
C4513      C4518   1.404       .  A
C4513      H4520   1.082       .  S
C4514      C4515   1.435       .  A
C4515      C4516   1.412       .  A
C4515      C4522   1.524       .  S
C4516      C4517   1.398       .  A
C4516      H4521   1.083       .  S
C4517      C4518   1.413       .  A
C4518      C4519   1.521       .  S
C4519      F4523   1.384       .  S
C4519      F4524   1.383       .  S
C4519      F4525   1.382       .  S
C4522      F4526   1.383       .  S
C4522      F4527   1.383       .  S
C4522      F4528   1.386       .  S
C4529      C4530   1.400       .  A
C4529      C4534   1.406       .  A
C4529      H4536   1.083       .  S
C4530      C4531   1.415       .  A
C4531      C4532   1.406       .  A
C4531      C4538   1.518       .  S
C4532      C4533   1.402       .  A
C4532      H4537   1.083       .  S
C4533      C4534   1.422       .  A
C4534      C4535   1.524       .  S
C4535      F4539   1.385       .  S
C4535      F4540   1.382       .  S
C4535      F4541   1.381       .  S
C4538      F4542   1.381       .  S
C4538      F4543   1.383       .  S
C4538      F4544   1.385       .  S
C4545      C4546   1.401       .  A
C4545      C4550   1.399       .  A
C4545      H4552   1.085       .  S
C4546      C4547   1.417       .  A
C4547      C4548   1.408       .  A
C4547      C4554   1.516       .  S
C4548      C4549   1.401       .  A
C4548      H4553   1.083       .  S
C4549      C4550   1.415       .  A
C4550      C4551   1.517       .  S
C4551      F4555   1.384       .  S
C4551      F4556   1.381       .  S
C4551      F4557   1.383       .  S
C4554      F4558   1.382       .  S
C4554      F4559   1.383       .  S
C4554      F4560   1.385       .  S
C4561      C4562   1.398       .  A
C4561      C4566   1.400       .  A
C4561      H4568   1.084       .  S
C4562      C4563   1.415       .  A
C4563      C4564   1.406       .  A
C4563      C4570   1.518       .  S
C4564      C4565   1.402       .  A
C4564      H4569   1.083       .  S
C4565      C4566   1.417       .  A
C4566      C4567   1.517       .  S
C4567      F4571   1.385       .  S
C4567      F4572   1.383       .  S
C4567      F4573   1.383       .  S
C4570      F4574   1.382       .  S
C4570      F4575   1.383       .  S
C4570      F4576   1.385       .  S
C4577      C4578   1.403       .  A
C4577      C4582   1.415       .  A
C4577      H4584   1.083       .  S
C4578      C4579   1.412       .  A
C4579      C4580   1.407       .  A
C4579      C4586   1.519       .  S
C4580      C4581   1.411       .  A
C4580      H4585   1.082       .  S
C4581      C4582   1.430       .  A
C4582      C4583   1.521       .  S
C4583      F4587   1.385       .  S
C4583      F4588   1.383       .  S
C4583      F4589   1.383       .  S
C4586      F4590   1.382       .  S
C4586      F4591   1.383       .  S
C4586      F4592   1.385       .  S
C4593      C4594   1.399       .  A
C4593      C4598   1.410       .  A
C4593      H4600   1.083       .  S
C4594      C4595   1.411       .  A
C4595      C4596   1.400       .  A
C4595      C4602   1.519       .  S
C4596      C4597   1.408       .  A
C4596      H4601   1.082       .  S
C4597      C4598   1.433       .  A
C4598      C4599   1.525       .  S
C4599      F4603   1.385       .  S
C4599      F4604   1.384       .  S
C4599      F4605   1.383       .  S
C4602      F4606   1.382       .  S
C4602      F4607   1.382       .  S
C4602      F4608   1.385       .  S
C4609      C4610   1.410       .  A
C4609      C4614   1.402       .  A
C4609      H4616   1.082       .  S
C4610      C4611   1.435       .  A
C4611      C4612   1.401       .  A
C4611      C4618   1.527       .  S
C4612      C4613   1.393       .  A
C4612      H4617   1.083       .  S
C4613      C4614   1.408       .  A
C4614      C4615   1.519       .  S
C4615      F4619   1.382       .  S
C4615      F4620   1.383       .  S
C4615      F4621   1.384       .  S
C4618      F4622   1.383       .  S
C4618      F4623   1.384       .  S
C4618      F4624   1.385       .  S
C4625      C4626   1.400       .  A
C4625      C4630   1.409       .  A
C4625      H4632   1.083       .  S
C4626      C4627   1.416       .  A
C4627      C4628   1.407       .  A
C4627      C4634   1.521       .  S
C4628      C4629   1.403       .  A
C4628      H4633   1.083       .  S
C4629      C4630   1.418       .  A
C4630      C4631   1.517       .  S
C4631      F4635   1.385       .  S
C4631      F4636   1.382       .  S
C4631      F4637   1.382       .  S
C4634      F4638   1.384       .  S
C4634      F4639   1.384       .  S
C4634      F4640   1.382       .  S
C4641      C4642   1.401       .  A
C4641      C4646   1.400       .  A
C4641      H4648   1.084       .  S
C4642      C4643   1.414       .  A
C4643      C4644   1.404       .  A
C4643      C4650   1.517       .  S
C4644      C4645   1.400       .  A
C4644      H4649   1.083       .  S
C4645      C4646   1.413       .  A
C4646      C4647   1.521       .  S
C4647      F4651   1.384       .  S
C4647      F4652   1.384       .  S
C4647      F4653   1.382       .  S
C4650      F4654   1.382       .  S
C4650      F4655   1.382       .  S
C4650      F4656   1.384       .  S
C4657      C4658   1.404       .  A
C4657      C4662   1.406       .  A
C4657      H4664   1.084       .  S
C4658      C4659   1.415       .  A
C4659      C4660   1.404       .  A
C4659      C4666   1.521       .  S
C4660      C4661   1.411       .  A
C4660      H4665   1.085       .  S
C4661      C4662   1.418       .  A
C4662      C4663   1.519       .  S
C4663      F4667   1.385       .  S
C4663      F4668   1.383       .  S
C4663      F4669   1.383       .  S
C4666      F4670   1.384       .  S
C4666      F4671   1.381       .  S
C4666      F4672   1.383       .  S
C4673      C4674   1.403       .  A
C4673      C4678   1.403       .  A
C4673      H4680   1.084       .  S
C4674      C4675   1.409       .  A
C4675      C4676   1.403       .  A
C4675      C4682   1.516       .  S
C4676      C4677   1.404       .  A
C4676      H4681   1.083       .  S
C4677      C4678   1.416       .  A
C4678      C4679   1.520       .  S
C4679      F4683   1.385       .  S
C4679      F4684   1.383       .  S
C4679      F4685   1.381       .  S
C4682      F4686   1.384       .  S
C4682      F4687   1.383       .  S
C4682      F4688   1.383       .  S
C4689      C4690   1.403       .  A
C4689      C4694   1.407       .  A
C4689      H4696   1.083       .  S
C4690      C4691   1.413       .  A
C4691      C4692   1.403       .  A
C4691      C4698   1.521       .  S
C4692      C4693   1.410       .  A
C4692      H4697   1.082       .  S
C4693      C4694   1.425       .  A
C4694      C4695   1.523       .  S
C4695      F4699   1.385       .  S
C4695      F4700   1.383       .  S
C4695      F4701   1.385       .  S
C4698      F4702   1.381       .  S
C4698      F4703   1.383       .  S
C4698      F4704   1.384       .  S
C4705      C4706   1.406       .  A
C4705      C4710   1.402       .  A
C4705      H4712   1.083       .  S
C4706      C4707   1.412       .  A
C4707      C4708   1.406       .  A
C4707      C4714   1.517       .  S
C4708      C4709   1.407       .  A
C4708      H4713   1.084       .  S
C4709      C4710   1.415       .  A
C4710      C4711   1.521       .  S
C4711      F4715   1.385       .  S
C4711      F4716   1.381       .  S
C4711      F4717   1.383       .  S
C4714      F4718   1.382       .  S
C4714      F4719   1.385       .  S
C4714      F4720   1.384       .  S
C4721      C4722   1.402       .  A
C4721      C4726   1.410       .  A
C4721      H4728   1.083       .  S
C4722      C4723   1.418       .  A
C4723      C4724   1.405       .  A
C4723      C4730   1.519       .  S
C4724      C4725   1.400       .  A
C4724      H4729   1.083       .  S
C4725      C4726   1.417       .  A
C4726      C4727   1.517       .  S
C4727      F4731   1.383       .  S
C4727      F4732   1.382       .  S
C4727      F4733   1.385       .  S
C4730      F4734   1.382   1_565  S
C4730      F4735   1.383       .  S
C4730      F4736   1.385       .  S
C4737      C4738   1.403       .  A
C4737      C4742   1.404       .  A
C4737      H4744   1.084       .  S
C4738      C4739   1.413       .  A
C4739      C4740   1.402       .  A
C4739      C4746   1.521       .  S
C4740      C4741   1.410       .  A
C4740      H4745   1.083       .  S
C4741      C4742   1.416       .  A
C4742      C4743   1.517       .  S
C4743      F4747   1.384       .  S
C4743      F4748   1.383       .  S
C4743      F4749   1.384       .  S
C4746      F4750   1.382       .  S
C4746      F4751   1.383       .  S
C4746      F4752   1.385       .  S
C4753      C4754   1.402       .  A
C4753      C4758   1.414       .  A
C4753      H4760   1.084       .  S
C4754      C4755   1.421       .  A
C4755      C4756   1.404       .  A
C4755      C4762   1.522       .  S
C4756      C4757   1.411       .  A
C4756      H4761   1.082       .  S
C4757      C4758   1.433       .  A
C4758      C4759   1.519       .  S
C4759      F4763   1.385       .  S
C4759      F4764   1.382       .  S
C4759      F4765   1.382       .  S
C4762      F4766   1.383       .  S
C4762      F4767   1.383       .  S
C4762      F4768   1.384       .  S
C4769      C4770   1.407       .  A
C4769      C4774   1.407       .  A
C4769      H4776   1.083       .  S
C4770      C4771   1.416       .  A
C4771      C4772   1.406       .  A
C4771      C4778   1.520       .  S
C4772      C4773   1.405       .  A
C4772      H4777   1.084       .  S
C4773      C4774   1.411       .  A
C4774      C4775   1.516       .  S
C4775      F4779   1.384       .  S
C4775      F4780   1.384       .  S
C4775      F4781   1.383       .  S
C4778      F4782   1.380       .  S
C4778      F4783   1.382       .  S
C4778      F4784   1.385       .  S
C4785      C4786   1.414       .  A
C4785      C4790   1.410       .  A
C4785      H4792   1.082       .  S
C4786      C4787   1.434       .  A
C4787      C4788   1.405       .  A
C4787      C4794   1.524       .  S
C4788      C4789   1.394       .  A
C4788      H4793   1.083       .  S
C4789      C4790   1.411       .  A
C4790      C4791   1.519       .  S
C4791      F4795   1.384       .  S
C4791      F4796   1.383       .  S
C4791      F4797   1.383       .  S
C4794      F4798   1.383       .  S
C4794      F4799   1.384       .  S
C4794      F4800   1.384       .  S
C4801      C4802   1.403       .  A
C4801      C4806   1.407       .  A
C4801      H4808   1.083       .  S
C4802      C4803   1.416       .  A
C4803      C4804   1.406       .  A
C4803      C4810   1.519       .  S
C4804      C4805   1.402       .  A
C4804      H4809   1.083       .  S
C4805      C4806   1.413       .  A
C4806      C4807   1.515       .  S
C4807      F4811   1.385       .  S
C4807      F4812   1.383       .  S
C4807      F4813   1.383       .  S
C4810      F4814   1.382       .  S
C4810      F4815   1.382       .  S
C4810      F4816   1.385       .  S
C4817      C4818   1.412       .  A
C4817      C4822   1.401       .  A
C4817      H4824   1.082       .  S
C4818      C4819   1.424       .  A
C4819      C4820   1.411       .  A
C4819      C4826   1.519       .  S
C4820      C4821   1.402       .  A
C4820      H4825   1.083       .  S
C4821      C4822   1.410       .  A
C4822      C4823   1.522       .  S
C4823      F4827   1.384       .  S
C4823      F4828   1.382       .  S
C4823      F4829   1.382       .  S
C4826      F4830   1.383       .  S
C4826      F4831   1.383       .  S
C4826      F4832   1.385       .  S
C4833      C4834   1.398       .  A
C4833      C4838   1.401       .  A
C4833      H4840   1.084       .  S
C4834      C4835   1.413       .  A
C4835      C4836   1.405       .  A
C4835      C4842   1.520       .  S
C4836      C4837   1.410       .  A
C4836      H4841   1.083       .  S
C4837      C4838   1.422       .  A
C4838      C4839   1.520       .  S
C4839      F4843   1.385       .  S
C4839      F4844   1.383       .  S
C4839      F4845   1.384       .  S
C4842      F4846   1.382       .  S
C4842      F4847   1.383       .  S
C4842      F4848   1.385       .  S
C4849      C4850   1.398       .  A
C4849      C4854   1.405       .  A
C4849      H4856   1.083       .  S
C4850      C4851   1.410       .  A
C4851      C4852   1.405       .  A
C4851      C4858   1.519       .  S
C4852      C4853   1.411       .  A
C4852      H4857   1.082       .  S
C4853      C4854   1.426       .  A
C4854      C4855   1.521       .  S
C4855      F4859   1.384       .  S
C4855      F4860   1.383       .  S
C4855      F4861   1.384       .  S
C4858      F4862   1.382       .  S
C4858      F4863   1.382       .  S
C4858      F4864   1.385       .  S
C4865      C4866   1.402       .  A
C4865      C4870   1.403       .  A
C4865      H4872   1.083       .  S
C4866      C4867   1.415       .  A
C4867      C4868   1.403       .  A
C4867      C4874   1.518       .  S
C4868      C4869   1.401       .  A
C4868      H4873   1.083       .  S
C4869      C4870   1.412       .  A
C4870      C4871   1.518       .  S
C4871      F4875   1.385       .  S
C4871      F4876   1.383       .  S
C4871      F4877   1.382       .  S
C4874      F4878   1.385       .  S
C4874      F4879   1.383       .  S
C4874      F4880   1.382       .  S
C4881      C4882   1.405       .  A
C4881      C4886   1.409       .  A
C4881      H4888   1.084       .  S
C4882      C4883   1.421       .  A
C4883      C4884   1.409       .  A
C4883      C4890   1.521       .  S
C4884      C4885   1.406       .  A
C4884      H4889   1.084       .  S
C4885      C4886   1.419       .  A
C4886      C4887   1.517       .  S
C4887      F4891   1.384       .  S
C4887      F4892   1.382       .  S
C4887      F4893   1.382       .  S
C4890      F4894   1.380       .  S
C4890      F4895   1.384       .  S
C4890      F4896   1.385       .  S
C4897      C4898   1.411   1_455  A
C4897      C4902   1.411       .  A
C4897      H4904   1.082   1_455  S
C4898      C4899   1.427   1_655  A
C4899      C4900   1.412       .  A
C4899      C4906   1.519       .  S
C4900      C4901   1.401       .  A
C4900      H4905   1.083       .  S
C4901      C4902   1.414       .  A
C4902      C4903   1.518       .  S
C4903      F4907   1.381       .  S
C4903      F4908   1.384       .  S
C4903      F4909   1.384       .  S
C4906      F4910   1.382   1_455  S
C4906      F4911   1.384       .  S
C4906      F4912   1.385       .  S
C4913      C4914   1.406       .  A
C4913      C4918   1.409   1_565  A
C4913      H4920   1.083       .  S
C4914      C4915   1.424   1_565  A
C4915      C4916   1.411       .  A
C4915      C4922   1.521       .  S
C4916      C4917   1.404       .  A
C4916      H4921   1.083       .  S
C4917      C4918   1.419       .  A
C4918      C4919   1.520       .  S
C4919      F4923   1.385       .  S
C4919      F4924   1.380       .  S
C4919      F4925   1.383       .  S
C4922      F4926   1.380   1_545  S
C4922      F4927   1.384       .  S
C4922      F4928   1.385       .  S
C4929      C4930   1.415       .  A
C4929      C4934   1.409       .  A
C4929      H4936   1.081       .  S
C4930      C4931   1.430       .  A
C4931      C4932   1.409       .  A
C4931      C4938   1.517       .  S
C4932      C4933   1.398       .  A
C4932      H4937   1.083       .  S
C4933      C4934   1.412       .  A
C4934      C4935   1.518       .  S
C4935      F4939   1.385       .  S
C4935      F4940   1.383       .  S
C4935      F4941   1.381       .  S
C4938      F4942   1.383       .  S
C4938      F4943   1.377       .  S
C4938      F4944   1.385       .  S
C4945      C4946   1.408       .  A
C4945      C4950   1.406       .  A
C4945      H4952   1.082   1_554  S
C4946      C4947   1.421       .  A
C4947      C4948   1.404       .  A
C4947      C4954   1.515       .  S
C4948      C4949   1.400       .  A
C4948      H4953   1.085       .  S
C4949      C4950   1.415       .  A
C4950      C4951   1.519       .  S
C4951      F4955   1.385       .  S
C4951      F4956   1.384       .  S
C4951      F4957   1.379       .  S
C4954      F4958   1.380       .  S
C4954      F4959   1.381       .  S
C4954      F4960   1.384       .  S
C4961      C4962   1.412       .  A
C4961      C4966   1.406       .  A
C4961      H4968   1.082   1_455  S
C4962      C4963   1.432       .  A
C4963      C4964   1.410       .  A
C4963      C4970   1.522       .  S
C4964      C4965   1.397       .  A
C4964      H4969   1.083       .  S
C4965      C4966   1.411       .  A
C4966      C4967   1.519       .  S
C4967      F4971   1.384       .  S
C4967      F4972   1.383       .  S
C4967      F4973   1.382       .  S
C4970      F4974   1.384   1_556  S
C4970      F4975   1.382   1_455  S
C4970      F4976   1.385       .  S
C4977      C4978   1.408       .  A
C4977      C4982   1.405       .  A
C4977      H4984   1.078       .  S
C4978      C4979   1.427       .  A
C4979      C4980   1.410       .  A
C4979      C4986   1.519   1_545  S
C4980      C4981   1.401       .  A
C4980      H4985   1.083       .  S
C4981      C4982   1.413       .  A
C4982      C4983   1.519       .  S
C4983      F4987   1.385       .  S
C4983      F4988   1.382       .  S
C4983      F4989   1.382       .  S
C4986      F4990   1.383       .  S
C4986      F4991   1.383       .  S
C4986      F4992   1.385   1_565  S
C4993      C4994   1.411       .  A
C4993      C4998   1.404       .  A
C4993      H5000   1.079       .  S
C4994      C4995   1.432       .  A
C4995      C4996   1.409       .  A
C4995      C5002   1.519       .  S
C4996      C4997   1.396       .  A
C4996      H5001   1.083       .  S
C4997      C4998   1.410       .  A
C4998      C4999   1.520       .  S
C4999      F5003   1.385       .  S
C4999      F5004   1.382       .  S
C4999      F5005   1.383       .  S
C5002      F5006   1.383       .  S
C5002      F5007   1.382       .  S
C5002      F5008   1.385       .  S
C5009      C5010   1.408       .  A
C5009      C5014   1.402       .  A
C5009      H5016   1.079   1_554  S
C5010      C5011   1.427       .  A
C5011      C5012   1.408       .  A
C5011      C5018   1.518       .  S
C5012      C5013   1.398       .  A
C5012      H5017   1.083       .  S
C5013      C5014   1.411       .  A
C5014      C5015   1.520       .  S
C5015      F5019   1.384       .  S
C5015      F5020   1.380       .  S
C5015      F5021   1.383       .  S
C5018      F5022   1.380   1_554  S
C5018      F5023   1.384       .  S
C5018      F5024   1.385       .  S
C5025      C5026   1.412       .  A
C5025      C5030   1.407       .  A
C5025      H5032   1.082       .  S
C5026      C5027   1.433       .  A
C5027      C5028   1.406       .  A
C5027      C5034   1.519       .  S
C5028      C5029   1.395       .  A
C5028      H5033   1.083       .  S
C5029      C5030   1.411       .  A
C5030      C5031   1.519       .  S
C5031      F5035   1.384       .  S
C5031      F5036   1.383       .  S
C5031      F5037   1.382       .  S
C5034      F5038   1.383       .  S
C5034      F5039   1.377       .  S
C5034      F5040   1.385       .  S
C5041      C5042   1.414       .  A
C5041      C5046   1.407       .  A
C5041      H5048   1.082       .  S
C5042      C5043   1.431       .  A
C5043      C5044   1.407       .  A
C5043      C5050   1.521       .  S
C5044      C5045   1.396       .  A
C5044      H5049   1.083       .  S
C5045      C5046   1.410       .  A
C5046      C5047   1.520       .  S
C5047      F5051   1.384       .  S
C5047      F5052   1.383       .  S
C5047      F5053   1.382       .  S
C5050      F5054   1.383       .  S
C5050      F5055   1.382       .  S
C5050      F5056   1.386       .  S
C5057      C5058   1.405       .  A
C5057      C5062   1.406       .  A
C5057      H5064   1.083       .  S
C5058      C5059   1.421       .  A
C5059      C5060   1.404       .  A
C5059      C5066   1.517       .  S
C5060      C5061   1.401       .  A
C5060      H5065   1.085       .  S
C5061      C5062   1.417       .  A
C5062      C5063   1.520       .  S
C5063      F5067   1.385       .  S
C5063      F5068   1.384       .  S
C5063      F5069   1.382       .  S
C5066      F5070   1.382       .  S
C5066      F5071   1.381       .  S
C5066      F5072   1.383       .  S
C5073      C5074   1.407       .  A
C5073      C5078   1.404       .  A
C5073      H5080   1.083       .  S
C5074      C5075   1.421       .  A
C5075      C5076   1.407       .  A
C5075      C5082   1.520       .  S
C5076      C5077   1.404       .  A
C5076      H5081   1.083       .  S
C5077      C5078   1.414       .  A
C5078      C5079   1.519       .  S
C5079      F5083   1.383       .  S
C5079      F5084   1.381       .  S
C5079      F5085   1.385       .  S
C5082      F5086   1.384       .  S
C5082      F5087   1.382       .  S
C5082      F5088   1.385       .  S
C5089      C5090   1.401       .  A
C5089      C5094   1.399       .  A
C5089      H5096   1.084       .  S
C5090      C5091   1.413       .  A
C5091      C5092   1.403       .  A
C5091      C5098   1.518       .  S
C5092      C5093   1.403       .  A
C5092      H5097   1.083       .  S
C5093      C5094   1.413       .  A
C5094      C5095   1.520       .  S
C5095      F5099   1.381       .  S
C5095      F5100   1.383       .  S
C5095      F5101   1.385       .  S
C5098      F5102   1.383       .  S
C5098      F5103   1.383       .  S
C5098      F5104   1.385       .  S
C5105      C5106   1.408       .  A
C5105      C5110   1.404       .  A
C5105      H5112   1.084       .  S
C5106      C5107   1.429       .  A
C5107      C5108   1.408       .  A
C5107      C5114   1.523       .  S
C5108      C5109   1.399       .  A
C5108      H5113   1.083       .  S
C5109      C5110   1.415       .  A
C5110      C5111   1.520       .  S
C5111      F5115   1.382       .  S
C5111      F5116   1.381       .  S
C5111      F5117   1.384       .  S
C5114      F5118   1.382       .  S
C5114      F5119   1.383       .  S
C5114      F5120   1.385       .  S
C5121      C5122   1.409       .  A
C5121      C5126   1.402       .  A
C5121      H5128   1.082       .  S
C5122      C5123   1.423       .  A
C5123      C5124   1.407       .  A
C5123      C5130   1.520       .  S
C5124      C5125   1.402       .  A
C5124      H5129   1.083       .  S
C5125      C5126   1.413       .  A
C5126      C5127   1.522       .  S
C5127      F5131   1.384       .  S
C5127      F5132   1.381       .  S
C5127      F5133   1.382       .  S
C5130      F5134   1.383       .  S
C5130      F5135   1.384       .  S
C5130      F5136   1.385       .  S
C5137      C5138   1.402       .  A
C5137      C5142   1.401       .  A
C5137      H5144   1.084       .  S
C5138      C5139   1.416       .  A
C5139      C5140   1.410       .  A
C5139      C5146   1.518       .  S
C5140      C5141   1.405       .  A
C5140      H5145   1.083       .  S
C5141      C5142   1.415       .  A
C5142      C5143   1.521       .  S
C5143      F5147   1.382       .  S
C5143      F5148   1.382       .  S
C5143      F5149   1.384       .  S
C5146      F5150   1.384       .  S
C5146      F5151   1.383       .  S
C5146      F5152   1.384       .  S
C5153      C5154   1.403       .  A
C5153      C5158   1.407       .  A
C5153      H5160   1.083       .  S
C5154      C5155   1.416       .  A
C5155      C5156   1.402       .  A
C5155      C5162   1.520       .  S
C5156      C5157   1.401       .  A
C5156      H5161   1.084       .  S
C5157      C5158   1.415       .  A
C5158      C5159   1.519       .  S
C5159      F5163   1.385       .  S
C5159      F5164   1.383       .  S
C5159      F5165   1.384       .  S
C5162      F5166   1.385       .  S
C5162      F5167   1.381       .  S
C5162      F5168   1.382       .  S
C5169      C5170   1.413       .  A
C5169      C5174   1.407       .  A
C5169      H5176   1.082       .  S
C5170      C5171   1.427       .  A
C5171      C5172   1.405       .  A
C5171      C5178   1.520       .  S
C5172      C5173   1.398       .  A
C5172      H5177   1.084       .  S
C5173      C5174   1.411       .  A
C5174      C5175   1.520       .  S
C5175      F5179   1.384       .  S
C5175      F5180   1.383       .  S
C5175      F5181   1.383       .  S
C5178      F5182   1.383       .  S
C5178      F5183   1.384       .  S
C5178      F5184   1.385       .  S
C5185      C5186   1.401       .  A
C5185      C5190   1.405       .  A
C5185      H5192   1.083       .  S
C5186      C5187   1.419       .  A
C5187      C5188   1.410       .  A
C5187      C5194   1.519       .  S
C5188      C5189   1.401       .  A
C5188      H5193   1.083       .  S
C5189      C5190   1.416       .  A
C5190      C5191   1.519       .  S
C5191      F5195   1.385       .  S
C5191      F5196   1.384       .  S
C5191      F5197   1.382       .  S
C5194      F5198   1.384       .  S
C5194      F5199   1.382       .  S
C5194      F5200   1.382       .  S
C5201      C5202   1.413       .  A
C5201      C5206   1.407       .  A
C5201      H5208   1.082       .  S
C5202      C5203   1.424       .  A
C5203      C5204   1.410       .  A
C5203      C5210   1.519       .  S
C5204      C5205   1.402       .  A
C5204      H5209   1.083       .  S
C5205      C5206   1.411       .  A
C5206      C5207   1.520       .  S
C5207      F5211   1.385       .  S
C5207      F5212   1.382       .  S
C5207      F5213   1.382       .  S
C5210      F5214   1.383       .  S
C5210      F5215   1.383       .  S
C5210      F5216   1.385       .  S
C5217      C5218   1.411       .  A
C5217      C5222   1.402       .  A
C5217      H5224   1.082       .  S
C5218      C5219   1.424       .  A
C5219      C5220   1.407       .  A
C5219      C5226   1.520       .  S
C5220      C5221   1.401       .  A
C5220      H5225   1.083       .  S
C5221      C5222   1.412       .  A
C5222      C5223   1.521       .  S
C5223      F5227   1.382       .  S
C5223      F5228   1.385       .  S
C5223      F5229   1.382       .  S
C5226      F5230   1.383       .  S
C5226      F5231   1.383       .  S
C5226      F5232   1.385       .  S
C5233      C5234   1.404       .  A
C5233      C5238   1.408       .  A
C5233      H5240   1.083       .  S
C5234      C5235   1.414       .  A
C5235      C5236   1.408       .  A
C5235      C5242   1.519       .  S
C5236      C5237   1.406       .  A
C5236      H5241   1.084       .  S
C5237      C5238   1.414       .  A
C5238      C5239   1.517       .  S
C5239      F5243   1.384       .  S
C5239      F5244   1.383       .  S
C5239      F5245   1.384       .  S
C5242      F5246   1.382       .  S
C5242      F5247   1.383       .  S
C5242      F5248   1.384       .  S
C5249      C5250   1.402       .  A
C5249      C5254   1.409       .  A
C5249      H5256   1.083       .  S
C5250      C5251   1.415       .  A
C5251      C5252   1.410       .  A
C5251      C5258   1.517       .  S
C5252      C5253   1.405       .  A
C5252      H5257   1.083       .  S
C5253      C5254   1.418       .  A
C5254      C5255   1.518       .  S
C5255      F5259   1.385       .  S
C5255      F5260   1.382       .  S
C5255      F5261   1.382       .  S
C5258      F5262   1.382       .  S
C5258      F5263   1.383       .  S
C5258      F5264   1.384       .  S
