geometry optimzed in LAMMPS
_audit_creation_date              2020-11-30 
_audit_creation_method            'lammps2cif' 
_symmetry_space_group_name_H-M    'P1' 
_symmetry_Int_Tables_number       1 
_symmetry_cell_setting            triclinic 
loop_ 
_symmetry_equiv_pos_as_xyz 
  x,y,z 
_cell_length_a                    29.764361539841655 
_cell_length_b                    30.629418124062 
_cell_length_c                    31.32100712506502 
_cell_angle_alpha                 90.41731472010659 
_cell_angle_beta                  89.35815597643044 
_cell_angle_gamma                 89.5046860338687 
loop_ 
_atom_site_label 
_atom_site_type_symbol 
_atom_site_fract_x 
_atom_site_fract_y 
_atom_site_fract_z 
_atom_site_charge 
O1          O  0.50055442  0.57702605  0.59810467    -0.81300
O2          O  0.52793490  0.42278717  0.46331231    -0.65990
O3          O  0.53161487  0.52354812  0.53171706    -1.12590
C4          C  0.41658086  0.56689058  0.43745729     1.05590
O5          O  0.52324323  0.46156218  0.40438357    -0.79190
O6          O  0.50488715  0.54293402  0.39824773    -0.66780
Ni7        Ni  0.52776968  0.52082495  0.59242131     1.34870
C8          C  0.53234282  0.56600923  0.41896321     0.84330
O9          O  0.57757955  0.44688527  0.52762219    -0.79730
O10         O  0.55465169  0.46412945  0.59369115    -0.90010
C11         C  0.54357066  0.43436622  0.42728070     0.83900
O12         O  0.46985155  0.49599555  0.58845011    -0.68210
O13         O  0.41789874  0.52940883  0.41981271    -0.87500
C14         C  0.46338074  0.45783658  0.57422269     0.84730
C15         C  0.57523817  0.43959374  0.56699687     1.06300
H16         H  0.45071151  0.48417677  0.48586861     0.38100
O17         O  0.47763953  0.49676354  0.47388471    -1.10160
O18         O  0.53018386  0.57094100  0.45967841    -0.66810
Ni19       Ni  0.48457896  0.55089888  0.50065933     1.26350
O20         O  0.48605824  0.44188698  0.54214984    -0.67040
O21         O  0.43964413  0.57861045  0.46903419    -0.79330
C22         C  0.47411986  0.59265134  0.57095665     0.84110
O23         O  0.48851913  0.60115165  0.53378224    -0.66510
Ni24       Ni  0.46987260  0.49384547  0.41390598     1.27450
Ni25       Ni  0.52761871  0.47090873  0.50069888     1.26060
H26         H  0.55996570  0.53699490  0.52466753     0.38660
O27         O  0.47846579  0.18727811  0.15095463    -0.81300
O28         O  0.53889690  0.34300802  0.27251816    -0.65990
O29         O  0.52511906  0.23655286  0.21172666    -1.12590
C30         C  0.43374935  0.19021879  0.32048691     1.05590
O31         O  0.52094712  0.32234185  0.33808877    -0.79190
O32         O  0.54440842  0.24078713  0.32787649    -0.66780
Ni33       Ni  0.51476475  0.23805788  0.15141658     1.34870
C34         C  0.54807746  0.20195050  0.31468100     0.84330
O35         O  0.57759466  0.30982685  0.20444862    -0.79730
O36         O  0.54742138  0.29145842  0.14242407    -0.90010
C37         C  0.54809636  0.33943088  0.31187652     0.83900
O38         O  0.46075126  0.26930334  0.16071141    -0.68210
O39         O  0.45849592  0.21414121  0.34345002    -0.87500
C40         C  0.45994903  0.30878657  0.17205279     0.84730
C41         C  0.57190712  0.31597752  0.16504612     1.06300
H42         H  0.45354897  0.28805933  0.26922805     0.38100
O43         O  0.48061603  0.27155072  0.27505668    -1.10160
O44         O  0.52192940  0.18648052  0.28571402    -0.66810
Ni45       Ni  0.47748696  0.21605401  0.24758808     1.26350
O46         O  0.48613592  0.32329767  0.20157539    -0.67040
O47         O  0.42868697  0.19712695  0.28139887    -0.79330
C48         C  0.45717175  0.16677469  0.17955342     0.84110
O49         O  0.47153357  0.16354089  0.21712489    -0.66510
Ni50       Ni  0.48858020  0.26927599  0.33577695     1.27450
Ni51       Ni  0.52940877  0.29165248  0.23968981     1.26060
H52         H  0.55225946  0.21987820  0.21668778     0.38660
C53         C  0.82298513  0.77767988  0.81642009     0.02720
C54         C  0.78332569  0.79806793  0.83311417    -0.13430
C55         C  0.76351847  0.83522177  0.81326817     0.00220
C56         C  0.78373203  0.85146930  0.77587333    -0.11950
C57         C  0.82314205  0.83261067  0.75824707     0.02720
C58         C  0.84226239  0.79562688  0.77870815    -0.11370
H59         H  0.76853367  0.78572439  0.86231599     0.08310
H60         H  0.76937854  0.88014303  0.76106411     0.05840
H61         H  0.87304195  0.78148012  0.76582924     0.05690
C62         C  0.76061709  0.96226483  0.93879449     0.02720
C63         C  0.77708521  0.94196605  0.97575660    -0.13430
C64         C  0.81465387  0.95837339  0.99724532     0.00220
C65         C  0.83560622  0.99639758  0.98166516    -0.11950
C66         C  0.81986323  0.01757991  0.94493214     0.02720
C67         C  0.78200187  0.00028925  0.92397427    -0.11370
H68         H  0.76140091  0.91243099  0.98719345     0.08310
H69         H  0.86504159  0.00891701  0.99748679     0.05840
H70         H  0.76994446  0.01566749  0.89521231     0.05690
C71         C  0.94517785  0.83141259  0.99990456     0.02720
C72         C  0.98310678  0.85135018  0.98101636    -0.13430
C73         C  0.00384720  0.83320282  0.94394030     0.00220
C74         C  0.98681573  0.79460265  0.92642245    -0.11950
C75         C  0.94915193  0.77449826  0.94425522     0.02720
C76         C  0.92886667  0.79276265  0.98120393    -0.11370
H77         H  0.99548519  0.88165863  0.99423630     0.08310
H78         H  0.00204019  0.78087033  0.89770265     0.05840
H79         H  0.89922259  0.77758868  0.99462488     0.05690
C80         C  0.94962062  0.01917753  0.82130532     0.02720
C81         C  0.98839357  0.99989365  0.83867620    -0.13430
C82         C  0.00748067  0.96180482  0.82095030     0.00220
C83         C  0.98806712  0.94326715  0.78428066    -0.11950
C84         C  0.94934297  0.96142120  0.76582338     0.02720
C85         C  0.93031493  0.99971304  0.78465884    -0.11370
H86         H  0.00303175  0.01372630  0.86718533     0.08310
H87         H  0.00242784  0.91358624  0.77073915     0.05840
H88         H  0.89998890  0.01370388  0.77149902     0.05690
O89         O  0.06068002  0.90363370  0.82595111    -0.74830
O90         O  0.14725454  0.83391728  0.88290710    -0.74860
O91         O  0.05567833  0.84026394  0.88523236    -0.74920
O92         O  0.15307087  0.89768216  0.82874884    -0.74970
O93         O  0.15313469  0.94926897  0.87947663    -0.74900
O94         O  0.05888937  0.88938949  0.93788595    -0.74880
O95         O  0.15134486  0.88518943  0.93378066    -0.74850
O96         O  0.06033391  0.95316954  0.87836473    -0.74920
Ni97       Ni  0.10359960  0.86727228  0.85372592     1.25410
Ni98       Ni  0.10553090  0.92108200  0.90933752     1.25360
C99         C  0.04507339  0.93890909  0.84265774     0.87350
C100        C  0.16717313  0.85107636  0.91449360     0.87280
C101        C  0.04144722  0.85526826  0.92142821     0.87310
C102        C  0.17207040  0.92972793  0.84791268     0.87480
O103        O  0.88218701  0.83594726  0.04850427    -0.74830
O104        O  0.80882880  0.89318609  0.13446338    -0.74860
O105        O  0.81675236  0.89816449  0.04674164    -0.74920
O106        O  0.87407240  0.83262734  0.13599722    -0.74970
O107        O  0.92428667  0.88601438  0.14158202    -0.74900
O108        O  0.86926228  0.94923142  0.05178922    -0.74880
O109        O  0.85960212  0.94618483  0.13826333    -0.74850
O110        O  0.93426930  0.88731068  0.05423802    -0.74920
Ni111      Ni  0.84366043  0.86302477  0.09109882     1.25410
Ni112      Ni  0.89875959  0.91885836  0.09669907     1.25360
C113        C  0.91972349  0.85239261  0.03633246     0.87350
C114        C  0.82246646  0.92911558  0.15065117     0.87280
C115        C  0.83412217  0.93420967  0.03395579     0.87310
C116        C  0.90722981  0.85041431  0.15495611     0.87480
O117        O  0.88367395  0.83944876  0.70653113    -0.74830
O118        O  0.95329640  0.90549008  0.62579687    -0.74860
O119        O  0.94593223  0.90341620  0.71297226    -0.74920
O120        O  0.89012005  0.84427373  0.61787307    -0.74970
O121        O  0.83620667  0.89516278  0.61740417    -0.74900
O122        O  0.89213246  0.95428195  0.71222104    -0.74880
O123        O  0.90051462  0.95760981  0.62550031    -0.74850
O124        O  0.82991246  0.89031015  0.70582613    -0.74920
Ni125      Ni  0.91993356  0.87122298  0.66582472     1.25410
Ni126      Ni  0.86260810  0.92596898  0.66507512     1.25360
C127        C  0.84632536  0.85474329  0.72126103     0.87350
C128        C  0.93883941  0.94242027  0.61279472     0.87280
C129        C  0.92819743  0.93875898  0.72841883     0.87310
C130        C  0.85496559  0.86113826  0.60078471     0.87480
O131        O  0.94620780  0.72154990  0.88728131    -0.74830
O132        O  0.88378791  0.63406891  0.82316146    -0.74860
O133        O  0.88335640  0.72395828  0.82467482    -0.74920
O134        O  0.94723247  0.63104517  0.88436625    -0.74970
O135        O  0.89472184  0.63305076  0.93548890    -0.74900
O136        O  0.82886048  0.72343511  0.87374070    -0.74880
O137        O  0.83159229  0.63349680  0.87491602    -0.74850
O138        O  0.89132596  0.72226959  0.93620186    -0.74920
Ni139      Ni  0.91707753  0.67771278  0.85306999     1.25410
Ni140      Ni  0.85967340  0.67799001  0.90669030     1.25360
C141        C  0.92832748  0.73721504  0.92176423     0.87350
C142        C  0.84820693  0.61828180  0.84009675     0.87280
C143        C  0.84589914  0.73966042  0.83929696     0.87310
C144        C  0.93156313  0.61668984  0.91996958     0.87480
O145        O  0.70983917  0.89594394  0.81742320    -0.74830
O146        O  0.61609787  0.96338611  0.87669943    -0.74860
O147        O  0.70919687  0.95894220  0.87966778    -0.74920
O148        O  0.61616659  0.90331205  0.81425583    -0.74970
O149        O  0.61300699  0.85194546  0.86427306    -0.74900
O150        O  0.70579802  0.90631255  0.92820229    -0.74880
O151        O  0.61455361  0.91079547  0.92550984    -0.74850
O152        O  0.70520568  0.84416257  0.86666410    -0.74920
Ni153      Ni  0.66326226  0.93222519  0.84500303     1.25410
Ni154      Ni  0.65957017  0.87644795  0.89760604     1.25360
C155        C  0.72395030  0.85940443  0.83306167     0.87350
C156        C  0.59942761  0.94688111  0.91094662     0.87280
C157        C  0.72314892  0.94181264  0.91449644     0.87310
C158        C  0.59674610  0.87052764  0.83119676     0.87480
O159        O  0.88187230  0.06870791  0.94223852    -0.74830
O160        O  0.94873292  0.16021591  0.88518058    -0.74860
O161        O  0.88607473  0.15801045  0.94939578    -0.74920
O162        O  0.94539566  0.07076982  0.87935457    -0.74970
O163        O  0.89170108  0.07452266  0.83059698    -0.74900
O164        O  0.83264008  0.16205218  0.90014373    -0.74880
O165        O  0.89460059  0.16331124  0.83659616    -0.74850
O166        O  0.82865899  0.07394855  0.89312362    -0.74920
Ni167      Ni  0.91754846  0.11443123  0.91579013     1.25410
Ni168      Ni  0.86010488  0.11899750  0.86349078     1.25360
C169        C  0.84455244  0.05553796  0.92630735     0.87350
C170        C  0.93270055  0.17570851  0.85047313     0.87280
C171        C  0.84838898  0.17301503  0.93666978     0.87310
C172        C  0.92801152  0.05702558  0.84440865     0.87480
O173        O  0.22857455  0.40423652  0.31003290    -0.81300
O174        O  0.27855117  0.53896324  0.16764481    -0.65990
O175        O  0.27334108  0.47258512  0.26829450    -1.12590
C176        C  0.17542786  0.57422465  0.32168114     1.05590
O177        O  0.26715961  0.60459184  0.19481588    -0.79190
O178        O  0.28284635  0.59169370  0.27303897    -0.66780
Ni179      Ni  0.26839342  0.41043680  0.26271681     1.34870
C180        C  0.28590130  0.57735465  0.31032005     0.84330
O181        O  0.32624291  0.47467636  0.19498266    -0.79730
O182        O  0.30480688  0.40762899  0.21168062    -0.90010
C183        C  0.29114248  0.57758166  0.17369659     0.83900
O184        O  0.21542853  0.41418496  0.23060168    -0.68210
O185        O  0.19542496  0.60067620  0.29693448    -0.87500
C186        C  0.21020482  0.43290550  0.19533556     0.84730
C187        C  0.32658516  0.43414279  0.18850291     1.06300
H188        H  0.19735199  0.52859379  0.22321351     0.38100
O189        O  0.22401021  0.53537574  0.23916540    -1.10160
O190        O  0.26323501  0.54434442  0.32330714    -0.66810
Ni191      Ni  0.22307004  0.50388581  0.29168495     1.26350
O192        O  0.23432255  0.46540758  0.18373691    -0.67040
O193        O  0.17243111  0.53414264  0.31345997    -0.79330
C194        C  0.20844186  0.42973320  0.33585442     0.84110
O195        O  0.21987442  0.46903855  0.34093070    -0.66510
Ni196      Ni  0.22886426  0.59771574  0.24378680     1.27450
Ni197      Ni  0.27484788  0.50428935  0.21629187     1.26060
H198        H  0.30000365  0.47904533  0.28437848     0.38660
O199        O  0.15270286  0.27981239  0.57299266    -0.81300
O200        O  0.27746404  0.21746390  0.41780436    -0.65990
O201        O  0.21720501  0.23666002  0.52289791    -1.12590
C202        C  0.33312676  0.32549463  0.56040834     1.05590
O203        O  0.34744837  0.23112876  0.43489332    -0.79190
O204        O  0.33495741  0.21391917  0.51459673    -0.66780
Ni205      Ni  0.15374350  0.24728809  0.52064551     1.34870
C206        C  0.32262012  0.21359669  0.55298853     0.84330
O207        O  0.20835866  0.18206074  0.45403893    -0.79730
O208        O  0.14461244  0.21744433  0.46591320    -0.90010
C209        C  0.31780092  0.20503054  0.42154258     0.83900
O210        O  0.16693142  0.30022147  0.49388271    -0.68210
O211        O  0.35666209  0.29803708  0.53894383    -0.87500
C212        C  0.17997760  0.30119299  0.45567465     0.84730
C213        C  0.16827763  0.19011215  0.44440962     1.06300
H214        H  0.27797084  0.30158766  0.46743350     0.38100
O215        O  0.28355916  0.27631983  0.48494780    -1.10160
O216        O  0.29472502  0.24214585  0.56873711    -0.66810
Ni217      Ni  0.25486412  0.28439402  0.53888633     1.26350
O218        O  0.20698691  0.27214279  0.43961186    -0.67040
O219        O  0.29203911  0.33168020  0.55321661    -0.79330
C220        C  0.18103206  0.30618482  0.58843544     0.84110
O221        O  0.22251605  0.29655795  0.59020535    -0.66510
Ni222      Ni  0.34707955  0.26590121  0.48587180     1.27450
Ni223      Ni  0.24574062  0.22890727  0.46896867     1.26060
H224        H  0.22279082  0.21144616  0.54049875     0.38660
O225        O  0.49660429  0.69571049  0.65185344    -0.81300
O226        O  0.54363643  0.85544128  0.77584653    -0.65990
O227        O  0.53503511  0.74687817  0.71700963    -1.12590
C228        C  0.43239776  0.70628021  0.82104559     1.05590
O229        O  0.53355132  0.82874207  0.84075419    -0.79190
O230        O  0.54450660  0.74640858  0.83582808    -0.66780
Ni231      Ni  0.53005982  0.74838999  0.65582053     1.34870
C232        C  0.54816385  0.70853260  0.82024142     0.84330
O233        O  0.58768340  0.82091687  0.71242864    -0.79730
O234        O  0.56015720  0.80384136  0.64938340    -0.90010
C235        C  0.55490595  0.85227139  0.81459342     0.83900
O236        O  0.47434671  0.77629774  0.66269723    -0.68210
O237        O  0.45498930  0.73121577  0.84509802    -0.87500
C238        C  0.47080607  0.81549293  0.67424802     0.84730
C239        C  0.58279824  0.82868730  0.67343398     1.06300
H240        H  0.46094084  0.79976840  0.77093044     0.38100
O241        O  0.48737823  0.78273142  0.77766372    -1.10160
O242        O  0.52389281  0.69533928  0.78896837    -0.66810
Ni243      Ni  0.48373272  0.72766852  0.74941963     1.26350
O244        O  0.49533918  0.83188818  0.70405828    -0.67040
O245        O  0.43237390  0.70983289  0.78095142    -0.79330
C246        C  0.46836236  0.67984930  0.67783889     0.84110
O247        O  0.47717588  0.67622931  0.71706016    -0.66510
Ni248      Ni  0.49258286  0.78163721  0.83841723     1.27450
Ni249      Ni  0.53748849  0.80259275  0.74458596     1.26060
H250        H  0.56141715  0.72997201  0.72427305     0.38660
O251        O  0.23623750  0.85951661  0.94682507    -0.81300
O252        O  0.27240195  0.71958446  0.09022854    -0.65990
O253        O  0.27158905  0.79075742  0.99325743    -1.12590
C254        C  0.18711569  0.68683760  0.92969543     1.05590
O255        O  0.26119158  0.65475118  0.06307558    -0.79190
O256        O  0.29258145  0.67438837  0.98687834    -0.66780
Ni257      Ni  0.26046690  0.85200865  0.00184366     1.34870
C258        C  0.29783390  0.68990709  0.95007483     0.84330
O259        O  0.31580278  0.78918682  0.06891767    -0.79730
O260        O  0.28366578  0.85370424  0.05860983    -0.90010
C261        C  0.28676010  0.68184218  0.08091457     0.83900
O262        O  0.20207654  0.83907201  0.02283196    -0.68210
O263        O  0.21021111  0.66037610  0.95167963    -0.87500
C264        C  0.19632890  0.82218798  0.05915778     0.84730
C265        C  0.30857143  0.82824003  0.07965430     1.06300
H266        H  0.19589020  0.72771507  0.03087483     0.38100
O267        O  0.22444488  0.72349130  0.01637902    -1.10160
O268        O  0.27251465  0.72106711  0.93617842    -0.66810
Ni269      Ni  0.22574643  0.75760243  0.96624112     1.26350
O270        O  0.22279632  0.79214058  0.07312206    -0.67040
O271        O  0.17972211  0.72561274  0.94115170    -0.79330
C272        C  0.21044658  0.83379071  0.92761593     0.84110
O273        O  0.22267092  0.79503638  0.91921273    -0.66510
Ni274      Ni  0.23471361  0.66193638  0.00847606     1.27450
Ni275      Ni  0.27015589  0.75675745  0.04340298     1.26060
H276        H  0.30013070  0.78668246  0.97866516     0.38660
O277        O  0.02718045  0.41506799  0.93950868    -0.81300
O278        O  0.98116386  0.54822705  0.08889082    -0.65990
O279        O  0.98651952  0.48070903  0.98882230    -1.12590
C280        C  0.07052980  0.58943664  0.93116452     1.05590
O281        O  0.98899415  0.61431497  0.06450553    -0.79190
O282        O  0.96290444  0.60084758  0.98565619    -0.66780
Ni283      Ni  0.99867351  0.41892168  0.99378537     1.34870
C284        C  0.95979515  0.58751902  0.94767722     0.84330
O285        O  0.94089401  0.47807617  0.06438060    -0.79730
O286        O  0.97200933  0.41370423  0.04949713    -0.90010
C287        C  0.96418869  0.58489535  0.07977487     0.83900
O288        O  0.05574776  0.42884564  0.01884341    -0.68210
O289        O  0.04750226  0.61536774  0.95473068    -0.87500
C290        C  0.05905191  0.44316014  0.05669418     0.84730
C291        C  0.94847622  0.43880818  0.07313015     1.06300
H292        H  0.05927125  0.54413505  0.02924204     0.38100
O293        O  0.03083940  0.54847921  0.01524853    -1.10160
O294        O  0.98475355  0.55523248  0.93376481    -0.66810
Ni295      Ni  0.03122448  0.51688981  0.96320844     1.26350
O296        O  0.03345930  0.47506064  0.07021427    -0.67040
O297        O  0.07746970  0.55030892  0.94060891    -0.79330
C298        C  0.05154728  0.44325219  0.92175174     0.84110
O299        O  0.03651223  0.48121859  0.91457088    -0.66510
Ni300      Ni  0.01951514  0.61058515  0.01065362     1.27450
Ni301      Ni  0.98627202  0.51219937  0.04090626     1.26060
H302        H  0.95807954  0.48491018  0.97477190     0.38660
O303        O  0.23915608  0.91462906  0.81175924    -0.81300
O304        O  0.28841352  0.04445597  0.66458021    -0.65990
O305        O  0.28514408  0.98207037  0.76795350    -1.12590
C306        C  0.18360182  0.08041713  0.81796376     1.05590
O307        O  0.26987028  0.11069044  0.68772035    -0.79190
O308        O  0.29166400  0.10057028  0.76565148    -0.66780
Ni309      Ni  0.28423158  0.91946719  0.76812985     1.34870
C310        C  0.29680335  0.08636799  0.80275072     0.84330
O311        O  0.33808086  0.98184382  0.69459901    -0.79730
O312        O  0.32468867  0.91526182  0.72027721    -0.90010
C313        C  0.29663238  0.08467449  0.66832937     0.83900
O314        O  0.23548116  0.91572442  0.73129292    -0.68210
O315        O  0.20474247  0.10739289  0.79456715    -0.87500
C316        C  0.22803334  0.93416299  0.69628558     0.84730
C317        C  0.34182135  0.94083409  0.69285712     1.06300
H318        H  0.20741408  0.03312763  0.71961713     0.38100
O319        O  0.23358065  0.04148286  0.73558984    -1.10160
O320        O  0.27306464  0.05502151  0.81791853    -0.66810
Ni321      Ni  0.23343656  0.01235563  0.78883033     1.26350
O322        O  0.24769909  0.96918465  0.68426165    -0.67040
O323        O  0.18098537  0.04087473  0.80814013    -0.79330
C324        C  0.21706333  0.94225184  0.83376863     0.84110
O325        O  0.23126908  0.98039449  0.83929928    -0.66510
Ni326      Ni  0.23560804  0.10410118  0.73937056     1.27450
Ni327      Ni  0.28594935  0.01130207  0.71460886     1.26060
H328        H  0.31121267  0.99096174  0.78379706     0.38660
O329        O  0.65823127  0.79779868  0.54343029    -0.81300
O330        O  0.79466534  0.73356887  0.41140891    -0.65990
O331        O  0.72539580  0.74287703  0.51182620    -1.12590
C332        C  0.83547568  0.83964243  0.56246015     1.05590
O333        O  0.85965022  0.73515844  0.44508741    -0.79190
O334        O  0.85299366  0.73377500  0.52599938    -0.66780
Ni335      Ni  0.66114563  0.74342974  0.51186493     1.34870
C336        C  0.83110331  0.73034065  0.56038620     0.84330
O337        O  0.72006324  0.69550174  0.43377275    -0.79730
O338        O  0.65731447  0.69288162  0.47418383    -0.90010
C339        C  0.83227658  0.71663485  0.42015918     0.83900
O340        O  0.65374103  0.77734984  0.46367193    -0.68210
O341        O  0.86211338  0.81987947  0.53640161    -0.87500
C342        C  0.67898440  0.79161484  0.43464128     0.84730
C343        C  0.67947075  0.68395535  0.43976687     1.06300
H344        H  0.78788058  0.81205887  0.46787636     0.38100
O345        O  0.79305688  0.78581099  0.48408244    -1.10160
O346        O  0.79521043  0.75175590  0.56933564    -0.66810
Ni347      Ni  0.75899417  0.79134533  0.53517354     1.26350
O348        O  0.72081657  0.78257328  0.43042577    -0.67040
O349        O  0.79302472  0.83891218  0.55828757    -0.79330
C350        C  0.68428048  0.81687396  0.56931579     0.84110
O351        O  0.71991388  0.79866763  0.58155832    -0.66510
Ni352      Ni  0.85671757  0.77991961  0.48809443     1.27450
Ni353      Ni  0.75725349  0.73939556  0.45951968     1.26060
H354        H  0.73359842  0.71706295  0.52758042     0.38660
O355        O  0.02621515  0.85284876  0.31381681    -0.81300
O356        O  0.96527362  0.72063976  0.17054802    -0.65990
O357        O  0.97701709  0.78796590  0.27140956    -1.12590
C358        C  0.06929024  0.68251299  0.32231012     1.05590
O359        O  0.97822300  0.65444486  0.19559755    -0.79190
O360        O  0.95914889  0.67221496  0.27257816    -0.66780
Ni361      Ni  0.98693650  0.84932085  0.26648259     1.34870
C362        C  0.95714443  0.68512044  0.31047966     0.84330
O363        O  0.92380650  0.79012792  0.19878804    -0.79730
O364        O  0.95169997  0.85496734  0.21556845    -0.90010
C365        C  0.95338749  0.68152910  0.17617702     0.83900
O366        O  0.03993014  0.83966660  0.23449574    -0.68210
O367        O  0.04545569  0.65656247  0.30021711    -0.87500
C368        C  0.04221173  0.82313128  0.19766151     0.84730
C369        C  0.92751155  0.83059391  0.19240441     1.06300
H370        H  0.04901788  0.72733837  0.22305755     0.38100
O371        O  0.02219150  0.72229235  0.23988599    -1.10160
O372        O  0.98296101  0.71546889  0.32446446    -0.66810
Ni373      Ni  0.02572130  0.75374047  0.29250670     1.26350
O374        O  0.01548901  0.79278998  0.18552224    -0.67040
O375        O  0.07530317  0.72126834  0.31129265    -0.79330
C376        C  0.04563534  0.82619016  0.33830041     0.84110
O377        O  0.03242784  0.78743759  0.34260272    -0.66510
Ni378      Ni  0.01407411  0.66043083  0.24570406     1.27450
Ni379      Ni  0.97281152  0.75629606  0.21891361     1.26060
H380        H  0.95019724  0.78335320  0.28838921     0.38660
O381        O  0.59880597  0.97468654  0.05521541    -0.81300
O382        O  0.46195925  0.04455681  0.91742956    -0.65990
O383        O  0.52995338  0.02706390  0.01797131    -1.12590
C384        C  0.42200256  0.93531450  0.06447457     1.05590
O385        O  0.39456802  0.03778953  0.94705346    -0.79190
O386        O  0.41292859  0.04601639  0.02529759    -0.66780
Ni387      Ni  0.59319276  0.01738931  0.01054363     1.34870
C388        C  0.42658999  0.04392622  0.06290843     0.84330
O389        O  0.52963032  0.08451611  0.94984671    -0.79730
O390        O  0.59690977  0.05524964  0.96032477    -0.90010
C391        C  0.42201357  0.05763164  0.92282172     0.83900
O392        O  0.57979090  0.96821558  0.97803784    -0.68210
O393        O  0.39545525  0.96025980  0.04392006    -0.87500
C394        C  0.56906635  0.97144522  0.93982647     0.84730
C395        C  0.57022334  0.07994691  0.93940602     1.06300
H396        H  0.46759556  0.96114971  0.96566297     0.38100
O397        O  0.46289280  0.98593219  0.98454514    -1.10160
O398        O  0.45753859  0.01679066  0.07350296    -0.66810
Ni399      Ni  0.49567012  0.97797660  0.03619532     1.26350
O400        O  0.53721744  0.99734347  0.92871483    -0.67040
O401        O  0.46199511  0.92906443  0.05256052    -0.79330
C402        C  0.57076365  0.95279627  0.07701624     0.84110
O403        O  0.53140689  0.96684591  0.08404385    -0.66510
Ni404      Ni  0.39973515  0.99649098  0.99285369     1.27450
Ni405      Ni  0.49718513  0.03478534  0.96598860     1.26060
H406        H  0.52491507  0.05188187  0.03673327     0.38660
C407        C  0.30270155  0.76222667  0.31618561     0.02720
C408        C  0.26435920  0.78099085  0.33499593    -0.13430
C409        C  0.24882937  0.82196600  0.32257663     0.00220
C410        C  0.27082172  0.84348486  0.28879144    -0.11950
C411        C  0.30890882  0.82437128  0.26858745     0.02720
C412        C  0.32453202  0.78362294  0.28261405    -0.11370
H413        H  0.24766345  0.76445356  0.36110651     0.08310
H414        H  0.25910654  0.87544243  0.27908726     0.05840
H415        H  0.35450483  0.76915979  0.26833370     0.05690
O416        O  0.42240331  0.70182429  0.37999659    -0.74830
O417        O  0.35083359  0.61808328  0.32128812    -0.74860
O418        O  0.35844547  0.70624222  0.32020059    -0.74920
O419        O  0.41238461  0.61352172  0.38077381    -0.74970
O420        O  0.36123252  0.62036259  0.43342138    -0.74900
O421        O  0.30475471  0.70920865  0.37038634    -0.74880
O422        O  0.29887984  0.62024152  0.37321509    -0.74850
O423        O  0.36934927  0.70883282  0.43033943    -0.74920
Ni424      Ni  0.38796882  0.65967734  0.34884001     1.25410
Ni425      Ni  0.33159667  0.66497781  0.40371577     1.25360
C426        C  0.40747714  0.72028813  0.41421675     0.87350
C427        C  0.31400578  0.60451518  0.33769128     0.87280
C428        C  0.32260566  0.72348986  0.33593408     0.87310
C429        C  0.39469046  0.60113139  0.41591996     0.87480
C430        C  0.50381766  0.94236412  0.31433042     0.02720
C431        C  0.48304582  0.97763592  0.33679445    -0.13430
C432        C  0.44349799  0.99734530  0.32117983     0.00220
C433        C  0.42566738  0.98185112  0.28269616    -0.11950
C434        C  0.44526128  0.94659690  0.26064527     0.02720
C435        C  0.48476617  0.92763787  0.27613105    -0.11370
H436        H  0.49655827  0.98859994  0.36694963     0.08310
H437        H  0.39488354  0.99601778  0.27068216     0.05840
H438        H  0.49945125  0.89977027  0.25948259     0.05690
O439        O  0.55223143  0.86397524  0.42415795    -0.74830
O440        O  0.64990381  0.91964194  0.36831238    -0.74860
O441        O  0.55855380  0.92977566  0.36809766    -0.74920
O442        O  0.64263357  0.85704540  0.42429318    -0.74970
O443        O  0.64071916  0.80782743  0.37131234    -0.74900
O444        O  0.55539748  0.88151658  0.31468062    -0.74880
O445        O  0.64787231  0.87166038  0.31440102    -0.74850
O446        O  0.54894907  0.81503610  0.37137855    -0.74920
Ni447      Ni  0.60088594  0.89443184  0.39784575     1.25410
Ni448      Ni  0.59798205  0.84236538  0.34074313     1.25360
C449        C  0.53436947  0.83006751  0.40736705     0.87350
C450        C  0.66698239  0.90301667  0.33411707     0.87280
C451        C  0.54162586  0.91708484  0.33288398     0.87310
C452        C  0.65568135  0.82116976  0.40723943     0.87480
O453        O  0.36911442  0.83001373  0.21755000    -0.74830
O454        O  0.42720569  0.88534952  0.12243696    -0.74860
O455        O  0.43528552  0.88948932  0.20985736    -0.74920
O456        O  0.36407067  0.82658562  0.13145815    -0.74970
O457        O  0.31257275  0.88025307  0.13381826    -0.74900
O458        O  0.38370594  0.94265931  0.21274999    -0.74880
O459        O  0.37519072  0.93826696  0.12552692    -0.74850
O460        O  0.31768032  0.88332829  0.21994814    -0.74920
Ni461      Ni  0.40097339  0.85604060  0.17059785     1.25410
Ni462      Ni  0.34561883  0.91316851  0.17346452     1.25360
C463        C  0.33313778  0.84705367  0.23375622     0.87350
C464        C  0.40751443  0.91854177  0.10600717     0.87280
C465        C  0.42074031  0.92574265  0.22538172     0.87310
C466        C  0.32885174  0.84519229  0.11735451     0.87480
C467        C  0.25344745  0.94157512  0.45317429     0.02720
C468        C  0.27074200  0.97973164  0.43430489    -0.13430
C469        C  0.31050577  0.99892153  0.44887728     0.00220
C470        C  0.33273155  0.97974171  0.48371305    -0.11950
C471        C  0.31642056  0.94152415  0.50330415     0.02720
C472        C  0.27644487  0.92290773  0.48785748    -0.11370
H473        H  0.25404167  0.99377796  0.40703400     0.08310
H474        H  0.36389715  0.99373138  0.49462254     0.05840
H475        H  0.26407820  0.89303116  0.50184713     0.05690
C476        C  0.43422636  0.75623006  0.43424199     0.02720
C477        C  0.47257518  0.77326040  0.41309465    -0.13430
C478        C  0.49597759  0.80917837  0.43020481     0.00220
C479        C  0.48122375  0.82736645  0.46922184    -0.11950
C480        C  0.44329020  0.81158828  0.49068098     0.02720
C481        C  0.42009051  0.77575725  0.47313717    -0.11370
H482        H  0.48347976  0.75940881  0.38276350     0.08310
H483        H  0.49868199  0.85510506  0.48252809     0.05840
H484        H  0.39027731  0.76378822  0.48918725     0.05690
O485        O  0.38190841  0.93466796  0.54715330    -0.74830
O486        O  0.45582928  0.87630068  0.62955949    -0.74860
O487        O  0.44511438  0.87049996  0.54200445    -0.74920
O488        O  0.39290787  0.93825471  0.63392204    -0.74970
O489        O  0.34206073  0.88563302  0.64193694    -0.74900
O490        O  0.39123786  0.82091088  0.54864100    -0.74880
O491        O  0.40421695  0.82418494  0.63487954    -0.74850
O492        O  0.32855242  0.88485541  0.55548412    -0.74920
Ni493      Ni  0.42087276  0.90676020  0.58766199     1.25410
Ni494      Ni  0.36459408  0.85221165  0.59547505     1.25360
C495        C  0.34329573  0.91945815  0.53727480     0.87350
C496        C  0.44140510  0.84120935  0.64665185     0.87280
C497        C  0.42607117  0.83518387  0.52929203     0.87310
C498        C  0.36051788  0.92081504  0.65462867     0.87480
O499        O  0.43310752  0.04895322  0.37953523    -0.74830
O500        O  0.36583315  0.14393756  0.43071514    -0.74860
O501        O  0.36690710  0.05369196  0.43990193    -0.74920
O502        O  0.43040122  0.13780053  0.37422872    -0.74970
O503        O  0.37865683  0.13448237  0.32321471    -0.74900
O504        O  0.31502597  0.04885087  0.38947823    -0.74880
O505        O  0.31331768  0.13912257  0.38065551    -0.74850
O506        O  0.38103709  0.04583944  0.32915667    -0.74920
Ni507      Ni  0.40065128  0.09589205  0.40815737     1.25410
Ni508      Ni  0.34501474  0.09145892  0.35396452     1.25360
C509        C  0.41831756  0.03242779  0.34470455     0.87350
C510        C  0.33218233  0.16022525  0.41074568     0.87280
C511        C  0.33134360  0.03606366  0.42520406     0.87310
C512        C  0.41324948  0.15218585  0.33985135     0.87480
O513        O  0.19836837  0.82455637  0.38227733    -0.74830
O514        O  0.10664315  0.87845139  0.45134865    -0.74860
O515        O  0.10605601  0.82166532  0.38839555    -0.74920
O516        O  0.19989276  0.88279676  0.44779416    -0.74970
O517        O  0.19575929  0.93690137  0.40085027    -0.74900
O518        O  0.10417394  0.87628297  0.34162349    -0.74880
O519        O  0.10383951  0.93228164  0.40367430    -0.74850
O520        O  0.19555149  0.87921605  0.33577753    -0.74920
Ni521      Ni  0.15342937  0.84989656  0.41930935     1.25410
Ni522      Ni  0.15005444  0.90814087  0.36899599     1.25360
C523        C  0.21219676  0.84284033  0.34779739     0.87350
C524        C  0.08639120  0.91086462  0.43443877     0.87280
C525        C  0.08721899  0.84160427  0.35747520     0.87310
C526        C  0.21406631  0.91951432  0.43350214     0.87480
O527        O  0.76507387  0.07401077  0.15132472    -0.81300
O528        O  0.72025581  0.91946368  0.27951580    -0.65990
O529        O  0.72459671  0.02523848  0.21784133    -1.12590
C530        C  0.81834757  0.07673568  0.31986982     1.05590
O531        O  0.72751171  0.94811137  0.34409933    -0.79190
O532        O  0.70810409  0.02893433  0.33195735    -0.66780
Ni533      Ni  0.73144604  0.02116232  0.15677449     1.34870
C534        C  0.70471223  0.06676679  0.31674857     0.84330
O535        O  0.67438831  0.95083083  0.21747752    -0.79730
O536        O  0.70145908  0.96520314  0.15305286    -0.90010
C537        C  0.70821120  0.92284738  0.31817247     0.83900
O538        O  0.78745240  0.99412525  0.16378267    -0.68210
O539        O  0.79506621  0.05287091  0.34438348    -0.87500
C540        C  0.79182001  0.95583354  0.17710687     0.84730
C541        C  0.67889862  0.94160262  0.17869024     1.06300
H542        H  0.79997410  0.97766858  0.27365873     0.38100
O543        O  0.77257260  0.99402596  0.27940518    -1.10160
O544        O  0.73099655  0.08017926  0.28705687    -0.66810
Ni545      Ni  0.77370063  0.04785756  0.24944147     1.26350
O546        O  0.76702121  0.94073379  0.20752740    -0.67040
O547        O  0.82267363  0.06942222  0.28045044    -0.79330
C548        C  0.79071905  0.09086256  0.17878842     0.84110
O549        O  0.77683264  0.09782666  0.21626635    -0.66510
Ni550      Ni  0.76307700  0.99898816  0.33972292     1.27450
Ni551      Ni  0.72398138  0.97120229  0.24745817     1.26060
H552        H  0.69725658  0.04134261  0.22439031     0.38660
O553        O  0.69454103  0.16659852  0.96637564    -0.81300
O554        O  0.84054735  0.29230522  0.04810222    -0.65990
O555        O  0.73388106  0.23235035  0.01781964    -1.12590
C556        C  0.70453586  0.33666444  0.92414074     1.05590
O557        O  0.81915620  0.35998127  0.03376136    -0.79190
O558        O  0.73662187  0.34447888  0.03635070    -0.66780
Ni559      Ni  0.73887495  0.17058261  0.00978275     1.34870
C560        C  0.69644961  0.33386440  0.03249703     0.84330
O561        O  0.79640450  0.22879115  0.08085122    -0.79730
O562        O  0.78794486  0.16496139  0.04894167    -0.90010
C563        C  0.83767048  0.33227808  0.05818218     0.83900
O564        O  0.77805418  0.18007301  0.96398124    -0.68210
O565        O  0.72380053  0.36178842  0.95090465    -0.87500
C566        C  0.81718882  0.19469797  0.96662504     0.84730
C567        C  0.80736520  0.18971453  0.07558447     1.06300
H568        H  0.80132107  0.28865959  0.95992780     0.38100
O569        O  0.77892908  0.29471077  0.98177300    -1.10160
O570        O  0.68423232  0.30615504  0.00362972    -0.66810
Ni571      Ni  0.72397495  0.26575388  0.96824983     1.26350
O572        O  0.82843024  0.22212413  0.99588319    -0.67040
O573        O  0.71684167  0.29801931  0.91859836    -0.79330
C574        C  0.67594014  0.19369521  0.94168162     0.84110
O575        O  0.67260752  0.23395804  0.95101497    -0.66510
Ni576      Ni  0.77406521  0.35627233  0.99011767     1.27450
Ni577      Ni  0.78877224  0.26129618  0.03140739     1.26060
H578        H  0.71142151  0.23853216  0.03958138     0.38660
C579        C  0.32036955  0.32670575  0.75280147     0.02720
C580        C  0.28172044  0.34576210  0.77215501    -0.13430
C581        C  0.26192008  0.32758695  0.80919322     0.00220
C582        C  0.28064266  0.28957627  0.82636625    -0.11950
C583        C  0.31917603  0.26992053  0.80836308     0.02720
C584        C  0.33875512  0.28854479  0.77139964    -0.11370
H585        H  0.26784455  0.37556994  0.75915134     0.08310
H586        H  0.26575213  0.27583941  0.85492033     0.05840
H587        H  0.36890831  0.27388886  0.75770880     0.05690
C588        C  0.50122056  0.31890805  0.93074722     0.02720
C589        C  0.48367935  0.33554599  0.96917185    -0.13430
C590        C  0.44696348  0.31609447  0.98930278     0.00220
C591        C  0.42819717  0.27811160  0.97104256    -0.11950
C592        C  0.44555400  0.25990997  0.93256734     0.02720
C593        C  0.48240967  0.28073146  0.91278911    -0.11370
H594        H  0.49769190  0.36500373  0.98274098     0.08310
H595        H  0.39911622  0.26350778  0.98611607     0.05840
H596        H  0.49534325  0.26821204  0.88261182     0.05690
C597        C  0.44118205  0.51131731  0.81313149     0.02720
C598        C  0.42335475  0.49344589  0.77504742    -0.13430
C599        C  0.44363636  0.45652686  0.75500861     0.00220
C600        C  0.48203817  0.43799518  0.77293125    -0.11950
C601        C  0.49957427  0.45398076  0.81088734     0.02720
C602        C  0.47953831  0.49111841  0.83058378    -0.11370
H603        H  0.39310347  0.50740182  0.76169936     0.08310
H604        H  0.49752353  0.40947275  0.75812120     0.05840
H605        H  0.49280572  0.50332148  0.86038999     0.05690
C606        C  0.31907140  0.44635636  0.99586484     0.02720
C607        C  0.28053304  0.42846605  0.97649361    -0.13430
C608        C  0.26032503  0.44873711  0.94089990     0.00220
C609        C  0.27810165  0.48766560  0.92547442    -0.11950
C610        C  0.31654220  0.50601678  0.94308074     0.02720
C611        C  0.33679113  0.48541967  0.97855175    -0.11370
H612        H  0.26716777  0.39797498  0.98817667     0.08310
H613        H  0.26277059  0.50300598  0.89813330     0.05840
H614        H  0.36700579  0.49914336  0.99189272     0.05690
O615        O  0.43450327  0.56457341  0.87083144    -0.74830
O616        O  0.36520857  0.64924040  0.93695307    -0.74860
O617        O  0.37326659  0.56046178  0.93523567    -0.74600
O618        O  0.42751376  0.65422981  0.87497733    -0.74970
O619        O  0.37561919  0.65170111  0.82413946    -0.74900
O620        O  0.31828093  0.56010298  0.88762218    -0.74880
O621        O  0.31301993  0.64981181  0.88642170    -0.74850
O622        O  0.37974673  0.56220926  0.82308753    -0.74920
Ni623      Ni  0.40218378  0.60728959  0.90606099     1.25410
Ni624      Ni  0.34474224  0.60582286  0.85357302     1.25360
C625        C  0.41767295  0.54815694  0.83659700     0.87350
C626        C  0.32787033  0.66374421  0.92213657     0.87280
C627        C  0.33679072  0.54437463  0.92129041     0.87310
C628        C  0.41020748  0.66923467  0.84087308     0.87480
O629        O  0.55148276  0.39330997  0.81500393    -0.74830
O630        O  0.64609766  0.33159243  0.87266976    -0.74860
O631        O  0.55358709  0.32840330  0.87353146    -0.74920
O632        O  0.64361686  0.39040390  0.81271370    -0.74970
O633        O  0.64426757  0.44058691  0.86483925    -0.74900
O634        O  0.55107897  0.37987453  0.92415942    -0.74880
O635        O  0.64243797  0.38256211  0.92399885    -0.74850
O636        O  0.55243356  0.44443192  0.86596082    -0.74920
Ni637      Ni  0.59817067  0.35897835  0.84156318     1.25410
Ni638      Ni  0.59703574  0.41371870  0.89648327     1.25360
C639        C  0.53657706  0.42951270  0.83129774     0.87350
C640        C  0.66246329  0.35065356  0.90567873     0.87280
C641        C  0.53722772  0.34345774  0.90855064     0.87310
C642        C  0.66234027  0.42202620  0.83186646     0.87480
O643        O  0.38141786  0.33346179  0.70185834    -0.74830
O644        O  0.44938528  0.39527355  0.61639677    -0.74860
O645        O  0.44222323  0.39846993  0.70358848    -0.74920
O646        O  0.38812898  0.33248969  0.61400254    -0.74970
O647        O  0.33353173  0.38277933  0.61122993    -0.74900
O648        O  0.38748006  0.44837713  0.70121090    -0.74880
O649        O  0.39566303  0.44638111  0.61419994    -0.74850
O650        O  0.32667040  0.38325274  0.69905599    -0.74920
Ni651      Ni  0.41711706  0.36310198  0.65917051     1.25410
Ni652      Ni  0.35875507  0.41685168  0.65616728     1.25360
C653        C  0.34359392  0.34858977  0.71575948     0.87350
C654        C  0.43379581  0.43090375  0.60121950     0.87280
C655        C  0.42360644  0.43381657  0.71780545     0.87310
C656        C  0.35279701  0.34815829  0.59670356     0.87480
O657        O  0.32658180  0.38695078  0.04674650    -0.74830
O658        O  0.39526176  0.32129517  0.12943625    -0.74860
O659        O  0.33150392  0.38238760  0.13425124    -0.74920
O660        O  0.38971348  0.32294550  0.04258321    -0.74970
O661        O  0.44351175  0.37303955  0.04268922    -0.74900
O662        O  0.38275891  0.43520928  0.13377931    -0.74880
O663        O  0.44697854  0.37344820  0.13087264    -0.74850
O664        O  0.37996644  0.43732608  0.04587104    -0.74920
Ni665      Ni  0.35881394  0.35177969  0.08828489     1.25410
Ni666      Ni  0.41519908  0.40666525  0.08813595     1.25360
C667        C  0.34271624  0.42259816  0.03151667     0.87350
C668        C  0.43186683  0.33699790  0.14449485     0.87280
C669        C  0.34843981  0.41671758  0.15047457     0.87310
C670        C  0.42606903  0.33814699  0.02701774     0.87480
O671        O  0.43780277  0.20565366  0.87616233    -0.74830
O672        O  0.36461018  0.12464395  0.81305849    -0.74860
O673        O  0.37503382  0.21317125  0.81463018    -0.74920
O674        O  0.42790481  0.11526118  0.87209979    -0.74970
O675        O  0.37421703  0.11961512  0.92224855    -0.74900
O676        O  0.32157873  0.21722059  0.86483681    -0.74880
O677        O  0.31181482  0.12841281  0.86415860    -0.74850
O678        O  0.38428846  0.20950668  0.92626642    -0.74920
Ni679      Ni  0.40346104  0.16453497  0.84235990     1.25410
Ni680      Ni  0.34633696  0.16903498  0.89633460     1.25360
C681        C  0.42191168  0.22270799  0.91092429     0.87350
C682        C  0.32667199  0.11267303  0.82885626     0.87280
C683        C  0.33952131  0.23142556  0.83011331     0.87310
C684        C  0.40733660  0.09925442  0.90441182     0.87480
O685        O  0.20913513  0.44521163  0.88203864    -0.74830
O686        O  0.11545156  0.38836757  0.81996301    -0.74860
O687        O  0.11698345  0.44903803  0.87869149    -0.74920
O688        O  0.20825240  0.38560035  0.81777272    -0.74970
O689        O  0.20785795  0.33334611  0.86685028    -0.74900
O690        O  0.11348975  0.39523235  0.92633326    -0.74880
O691        O  0.11548159  0.33469999  0.86782555    -0.74850
O692        O  0.20579838  0.39293628  0.93100743    -0.74920
Ni693      Ni  0.16306377  0.41890803  0.84777882     1.25410
Ni694      Ni  0.16105964  0.36220400  0.89980396     1.25360
C695        C  0.22297092  0.42818578  0.91707847     0.87350
C696        C  0.09694078  0.35495842  0.83723040     0.87280
C697        C  0.09661682  0.42937946  0.90878516     0.87310
C698        C  0.22385325  0.34965409  0.83215511     0.87480
C699        C  0.68734141  0.68752406  0.24344252     0.02720
C700        C  0.66659594  0.72421011  0.22401886    -0.13430
C701        C  0.68347503  0.74214590  0.18563511     0.00220
C702        C  0.72236868  0.72358365  0.16710671    -0.11950
C703        C  0.74382015  0.68718288  0.18510113     0.02720
C704        C  0.72604465  0.66927621  0.22336940    -0.11370
H705        H  0.63631952  0.73818423  0.23812988     0.08310
H706        H  0.73542265  0.73689602  0.13757603     0.05840
H707        H  0.74171318  0.64062646  0.23699942     0.05690
O708        O  0.67923249  0.62995045  0.29720812    -0.74830
O709        O  0.60308505  0.57112314  0.38116890    -0.74860
O710        O  0.61252301  0.57048348  0.29336987    -0.74920
O711        O  0.67304921  0.62766812  0.38637939    -0.74970
O712        O  0.62208660  0.68131419  0.38621356    -0.74900
O713        O  0.56340016  0.62542851  0.28972441    -0.74880
O714        O  0.55353052  0.62587985  0.37703628    -0.74850
O715        O  0.62975870  0.68473854  0.29751141    -0.74920
Ni716      Ni  0.64386435  0.59792858  0.33980381     1.25410
Ni717      Ni  0.59068588  0.65635196  0.33758728     1.25360
C718        C  0.66515883  0.66653307  0.28174771     0.87350
C719        C  0.56552627  0.58935279  0.39258076     0.87280
C720        C  0.57895223  0.58865079  0.27519451     0.87310
C721        C  0.65655387  0.66264293  0.40304646     0.87480
C722        C  0.74938949  0.57162235  0.05047121     0.02720
C723        C  0.73049422  0.59244141  0.01441828    -0.13430
C724        C  0.69158092  0.57570752  0.99459243     0.00220
C725        C  0.67192413  0.53763751  0.01143407    -0.11950
C726        C  0.68987258  0.51681280  0.04730685     0.02720
C727        C  0.72892850  0.53368425  0.06593962    -0.11370
H728        H  0.74522825  0.62226577  0.00258325     0.08310
H729        H  0.64160015  0.52483894  0.99743698     0.05840
H730        H  0.74262449  0.51806177  0.09389818     0.05690
C731        C  0.49710131  0.69299593  0.05625467     0.02720
C732        C  0.51632384  0.67587756  0.01798217    -0.13430
C733        C  0.55441722  0.69547439  0.99899758     0.00220
C734        C  0.57271139  0.73265080  0.01905705    -0.11950
C735        C  0.55417946  0.74985591  0.05729474     0.02720
C736        C  0.51609059  0.73019814  0.07500897    -0.11370
H737        H  0.50256617  0.64662940  0.00377948     0.08310
H738        H  0.60259788  0.74741365  0.00567977     0.05840
H739        H  0.50219998  0.74297618  0.10471403     0.05690
C740        C  0.55894421  0.56723235  0.23630130     0.02720
C741        C  0.58001254  0.53068018  0.21582574    -0.13430
C742        C  0.56241031  0.51224402  0.17784408     0.00220
C743        C  0.52298136  0.53068869  0.16091344    -0.11950
C744        C  0.50170007  0.56701761  0.18018558     0.02720
C745        C  0.51981685  0.58478740  0.21794122    -0.11370
H746        H  0.61067898  0.51725423  0.22882754     0.08310
H747        H  0.50944208  0.51755085  0.13160117     0.05840
H748        H  0.50385810  0.61308152  0.23271037     0.05690
O749        O  0.44591602  0.62335076  0.17595282    -0.74830
O750        O  0.35359305  0.68761166  0.12038017    -0.74860
O751        O  0.35304727  0.62530685  0.17611537    -0.74920
O752        O  0.44576812  0.68573085  0.11544197    -0.74970
O753        O  0.44283549  0.63585585  0.06348132    -0.74900
O754        O  0.35392967  0.57271426  0.12639090    -0.74880
O755        O  0.34984683  0.63512187  0.07074186    -0.74850
O756        O  0.44686771  0.57321437  0.12410292    -0.74920
Ni757      Ni  0.40015733  0.65722643  0.14883980     1.25410
Ni758      Ni  0.39882027  0.60243102  0.09419688     1.25360
C759        C  0.46261747  0.58851451  0.15921394     0.87350
C760        C  0.33267617  0.66830667  0.09052403     0.87280
C761        C  0.33500625  0.59207197  0.15811724     0.87310
C762        C  0.45976981  0.67063792  0.07920490     0.87480
O763        O  0.62374585  0.46059765  0.16610727    -0.74830
O764        O  0.68370210  0.37386688  0.09579232    -0.74860
O765        O  0.68419786  0.46246724  0.10094993    -0.74920
O766        O  0.62596416  0.37136934  0.16126308    -0.74970
O767        O  0.57146699  0.37120080  0.11283573    -0.74900
O768        O  0.62907127  0.46525697  0.05354785    -0.74880
O769        O  0.62928533  0.37554757  0.04744469    -0.74850
O770        O  0.56830909  0.46111768  0.11903326    -0.74920
Ni771      Ni  0.65628108  0.41702026  0.13265364     1.25410
Ni772      Ni  0.59728281  0.41851209  0.08168582     1.25360
C773        C  0.58589347  0.47592577  0.15353979     0.87350
C774        C  0.66677970  0.36034825  0.06047389     0.87280
C775        C  0.66660401  0.47944245  0.06782197     0.87310
C776        C  0.59082373  0.35457530  0.14539258     0.87480
O777        O  0.68346905  0.63556903  0.94467728    -0.74830
O778        O  0.61455812  0.69699659  0.85981965    -0.74860
O779        O  0.61411334  0.69357885  0.94680002    -0.74920
O780        O  0.68525145  0.63994437  0.85727317    -0.74970
O781        O  0.63736040  0.58435060  0.85594120    -0.74900
O782        O  0.56397338  0.64023942  0.94339421    -0.74880
O783        O  0.56658311  0.64170034  0.85533373    -0.74850
O784        O  0.63328660  0.58218893  0.94255905    -0.74920
Ni785      Ni  0.65098471  0.66849556  0.90196485     1.25410
Ni786      Ni  0.59854862  0.61022449  0.89892661     1.25360
C787        C  0.66879490  0.59890320  0.95859513     0.87350
C788        C  0.57891309  0.67994446  0.84425386     0.87280
C789        C  0.57814330  0.67560096  0.96087471     0.87310
C790        C  0.67406503  0.60225792  0.84343686     0.87480
O791        O  0.79882526  0.68427290  0.12776115    -0.74830
O792        O  0.89857787  0.62839897  0.06941134    -0.74860
O793        O  0.80518643  0.62668960  0.06177013    -0.74920
O794        O  0.89139386  0.68684936  0.12958168    -0.74970
O795        O  0.89306781  0.63094675  0.17483106    -0.74900
O796        O  0.80127512  0.57340614  0.10956489    -0.74880
O797        O  0.89431548  0.57239464  0.11435048    -0.74850
O798        O  0.79979954  0.63104621  0.17577348    -0.74920
Ni799      Ni  0.84802298  0.65835449  0.09524880     1.25410
Ni800      Ni  0.84652507  0.59997131  0.14530358     1.25360
C801        C  0.78295370  0.66672735  0.16196405     0.87350
C802        C  0.91630707  0.59473895  0.08718455     0.87280
C803        C  0.78754972  0.59117056  0.07479136     0.87310
C804        C  0.91038874  0.66601449  0.15960771     0.87480
O805        O  0.56047340  0.79990102  0.11658817    -0.74830
O806        O  0.62565203  0.88481637  0.18105506    -0.74860
O807        O  0.56384434  0.89041039  0.12241611    -0.74920
O808        O  0.62333330  0.79506075  0.17898067    -0.74970
O809        O  0.67668198  0.79421705  0.12859594    -0.74900
O810        O  0.61823281  0.89019461  0.07284726    -0.74880
O811        O  0.67928445  0.88342793  0.13053601    -0.74850
O812        O  0.61418448  0.80019806  0.06651909    -0.74920
Ni813      Ni  0.59125370  0.84207557  0.15151421     1.25410
Ni814      Ni  0.64887000  0.84150050  0.09778435     1.25360
C815        C  0.57701085  0.78546609  0.08102803     0.87350
C816        C  0.66055618  0.90108058  0.16319931     0.87280
C817        C  0.58462088  0.90902704  0.09158570     0.87310
C818        C  0.66005532  0.77903473  0.16349314     0.87480
O819        O  0.76549029  0.58358404  0.65219066    -0.81300
O820        O  0.72003155  0.43057226  0.78009182    -0.65990
O821        O  0.72436189  0.53527221  0.71805203    -1.12590
C822        C  0.82479340  0.58226949  0.82042112     1.05590
O823        O  0.72913906  0.45707104  0.84495780    -0.79190
O824        O  0.71429840  0.53864783  0.83832283    -0.66780
Ni825      Ni  0.73157812  0.53110487  0.65714851     1.34870
C826        C  0.70763876  0.57499634  0.82085190     0.84330
O827        O  0.67419860  0.45971032  0.71632352    -0.79730
O828        O  0.70154166  0.47532667  0.65228723    -0.90010
C829        C  0.70634316  0.43646174  0.81791549     0.83900
O830        O  0.78725319  0.50315070  0.66458117    -0.68210
O831        O  0.80305088  0.55734146  0.84512888    -0.87500
C832        C  0.79014552  0.46445361  0.67736294     0.84730
C833        C  0.67970168  0.45060880  0.67733715     1.06300
H834        H  0.79985678  0.48732684  0.77170732     0.38100
O835        O  0.77276616  0.50349699  0.77898675    -1.10160
O836        O  0.73139759  0.58855236  0.78916272    -0.66810
Ni837      Ni  0.77386786  0.55777617  0.74985528     1.26350
O838        O  0.76564665  0.45006863  0.70809299    -0.67040
O839        O  0.82388633  0.57898073  0.78031812    -0.79330
C840        C  0.78879446  0.60479712  0.67870815     0.84110
O841        O  0.77709936  0.60888168  0.71738611    -0.66510
Ni842      Ni  0.76773304  0.50570456  0.84017331     1.27450
Ni843      Ni  0.72340582  0.48113718  0.74738968     1.26060
H844        H  0.69712819  0.55154707  0.72461589     0.38660
O845        O  0.99364834  0.09107385  0.59482573    -0.81300
O846        O  0.02887745  0.92215121  0.48526607    -0.65990
O847        O  0.03318092  0.03412095  0.53332289    -1.12590
C848        C  0.92937195  0.07423042  0.43499111     1.05590
O849        O  0.01585187  0.93885059  0.41837059    -0.79190
O850        O  0.03676927  0.02156957  0.41360270    -0.66780
Ni851      Ni  0.03023525  0.03893910  0.59479233     1.34870
C852        C  0.04272612  0.06062273  0.42521359     0.84330
O853        O  0.08266528  0.95894135  0.53910589    -0.79730
O854        O  0.06458343  0.98547567  0.60339470    -0.90010
C855        C  0.04081192  0.92261366  0.44685139     0.83900
O856        O  0.97544539  0.00796236  0.59962789    -0.68210
O857        O  0.94891858  0.04651739  0.41043754    -0.87500
C858        C  0.96917378  0.96938467  0.58673500     0.84730
C859        C  0.08480989  0.95786363  0.57912571     1.06300
H860        H  0.95258875  0.98261166  0.49049892     0.38100
O861        O  0.97948699  0.99659066  0.48003046    -1.10160
O862        O  0.02111038  0.07781617  0.45689585    -0.66810
Ni863      Ni  0.98221664  0.05373152  0.50254810     1.26350
O864        O  0.99158881  0.95255302  0.55549319    -0.67040
O865        O  0.92997604  0.07153319  0.47483020    -0.79330
C866        C  0.96969793  0.10680954  0.56533289     0.84110
O867        O  0.98424719  0.10839213  0.52779716    -0.66510
Ni868      Ni  0.98125810  0.99199144  0.41868008     1.27450
Ni869      Ni  0.03068788  0.97693811  0.51064367     1.26060
H870        H  0.06010302  0.04824653  0.52308723     0.38660
C871        C  0.50611699  0.07486709  0.68192426     0.02720
C872        C  0.52361002  0.09204884  0.72057913    -0.13430
C873        C  0.56398298  0.07540673  0.73833228     0.00220
C874        C  0.58660197  0.04129330  0.71658631    -0.11950
C875        C  0.57021582  0.02416631  0.67802128     0.02720
C876        C  0.52979768  0.04072605  0.66140430    -0.11370
H877        H  0.50647098  0.11918017  0.73623186     0.08310
H878        H  0.61786500  0.02874144  0.72916096     0.05840
H879        H  0.51746249  0.02793632  0.63145162     0.05690
C880        C  0.69879065  0.08033827  0.49191217     0.02720
C881        C  0.73665688  0.10040696  0.51061217    -0.13430
C882        C  0.75699985  0.08247200  0.54726898     0.00220
C883        C  0.73908012  0.04393035  0.56468488    -0.11950
C884        C  0.70109188  0.02382162  0.54741751     0.02720
C885        C  0.68164609  0.04198956  0.51071696    -0.11370
H886        H  0.74952785  0.13043676  0.49737532     0.08310
H887        H  0.75366243  0.03039057  0.59326050     0.05840
H888        H  0.65198713  0.02696426  0.49758497     0.05690
C889        C  0.56498598  0.19698674  0.49711548     0.02720
C890        C  0.58736942  0.23112106  0.51845552    -0.13430
C891        C  0.57152351  0.24713279  0.55816864     0.00220
C892        C  0.53244092  0.22957707  0.57615143    -0.11950
C893        C  0.50975057  0.19553999  0.55624610     0.02720
C894        C  0.52607785  0.17935853  0.51648813    -0.11370
H895        H  0.61781913  0.24448426  0.50476736     0.08310
H896        H  0.52024392  0.24159626  0.60679241     0.05840
H897        H  0.50916493  0.15240072  0.50114709     0.05690
O898        O  0.68860726  0.13609630  0.43815477    -0.74830
O899        O  0.61599811  0.19273276  0.35288940    -0.74860
O900        O  0.62009322  0.19445595  0.44033838    -0.74920
O901        O  0.68572400  0.13429632  0.35068208    -0.74970
O902        O  0.63718110  0.07938929  0.35521768    -0.74900
O903        O  0.56950223  0.14138403  0.44205479    -0.74880
O904        O  0.56751516  0.13769600  0.35390056    -0.74850
O905        O  0.63809314  0.08307223  0.44181242    -0.74920
Ni906      Ni  0.65423769  0.16639103  0.39507098     1.25410
Ni907      Ni  0.60126375  0.10855549  0.39803983     1.25360
C908        C  0.67439076  0.10069088  0.45521362     0.87350
C909        C  0.57966762  0.17496030  0.33970610     0.87280
C910        C  0.58524800  0.17703497  0.45744546     0.87310
C911        C  0.67335794  0.09586043  0.33994435     0.87480
O912        O  0.45117010  0.07973991  0.62501402    -0.74830
O913        O  0.36317765  0.14748205  0.56306993    -0.74860
O914        O  0.45417704  0.14073750  0.56320468    -0.74920
O915        O  0.35824171  0.08338376  0.62020878    -0.74970
O916        O  0.35646325  0.13533114  0.67054669    -0.74900
O917        O  0.45565637  0.19176293  0.61419446    -0.74880
O918        O  0.36400412  0.19837997  0.61443246    -0.74850
O919        O  0.44948882  0.13066873  0.67605592    -0.74920
Ni920      Ni  0.40667843  0.11079222  0.59124684     1.25410
Ni921      Ni  0.40659137  0.16561952  0.64586580     1.25360
C922        C  0.46645739  0.09552608  0.66029029     0.87350
C923        C  0.34922885  0.18412468  0.57909387     0.87280
C924        C  0.47106576  0.17534316  0.57884370     0.87310
C925        C  0.33903046  0.10197060  0.65208086     0.87480
C926        C  0.69786379  0.25284738  0.69029477     0.02720
C927        C  0.73665558  0.23447491  0.67232021    -0.13430
C928        C  0.75483710  0.19558472  0.68767861     0.00220
C929        C  0.73440185  0.17613635  0.72396802    -0.11950
C930        C  0.69584118  0.19580667  0.74380662     0.02720
C931        C  0.67826822  0.23420446  0.72647928    -0.11370
H932        H  0.75128549  0.24941142  0.64424812     0.08310
H933        H  0.74757239  0.14554939  0.73586702     0.05840
H934        H  0.64797923  0.24869903  0.74010043     0.05690
O935        O  0.63310926  0.29608764  0.56859190    -0.74830
O936        O  0.68569917  0.39164043  0.62882098    -0.74860
O937        O  0.69250399  0.30271450  0.63317020    -0.74920
O938        O  0.62899741  0.38403531  0.56626725    -0.74970
O939        O  0.57440410  0.38443702  0.61609912    -0.74900
O940        O  0.63634588  0.30103733  0.68086811    -0.74880
O941        O  0.63132544  0.38961589  0.67851992    -0.74850
O942        O  0.57723099  0.29672226  0.61657596    -0.74920
Ni943      Ni  0.66237054  0.34320369  0.59761694     1.25410
Ni944      Ni  0.60283956  0.34250865  0.64974061     1.25360
C945        C  0.59531805  0.28162688  0.58210882     0.87350
C946        C  0.66482423  0.40853829  0.66103914     0.87280
C947        C  0.67480005  0.28782365  0.66749138     0.87310
C948        C  0.59345060  0.40027176  0.58306972     0.87480
O949        O  0.63375400  0.97616895  0.66842084    -0.74830
O950        O  0.69495316  0.88137030  0.61123838    -0.74860
O951        O  0.69679425  0.97210231  0.60494196    -0.74920
O952        O  0.63457824  0.88703068  0.67218814    -0.74970
O953        O  0.58140649  0.88446400  0.62246814    -0.74900
O954        O  0.64226070  0.97114191  0.55688062    -0.74880
O955        O  0.64133559  0.88112321  0.56201151    -0.74850
O956        O  0.57943262  0.97354106  0.62013487    -0.74920
Ni957      Ni  0.66721566  0.92978773  0.64076552     1.25410
Ni958      Ni  0.60933860  0.92798051  0.58852646     1.25360
C959        C  0.59576164  0.98964407  0.65441720     0.87350
C960        C  0.67384881  0.86222117  0.58110219     0.87280
C961        C  0.67933656  0.98676882  0.57046714     0.87310
C962        C  0.60030605  0.86889800  0.65563490     0.87480
O963        O  0.80772860  0.19580371  0.62950565    -0.74830
O964        O  0.90174673  0.14763075  0.55893602    -0.74860
O965        O  0.80837849  0.14258506  0.55931032    -0.74920
O966        O  0.90067388  0.19916147  0.62552784    -0.74970
O967        O  0.90067596  0.14192571  0.66917109    -0.74900
O968        O  0.81178534  0.08535401  0.60256433    -0.74880
O969        O  0.90393968  0.09090341  0.60325580    -0.74850
O970        O  0.80870783  0.13813486  0.67232367    -0.74920
Ni971      Ni  0.85384872  0.17342136  0.59167015     1.25410
Ni972      Ni  0.85592547  0.11197407  0.63814775     1.25360
C973        C  0.79252874  0.17543702  0.66240012     0.87350
C974        C  0.92237514  0.11493821  0.57489966     0.87280
C975        C  0.79454503  0.10457388  0.57030718     0.87310
C976        C  0.91879072  0.17702170  0.65544048     0.87480
O977        O  0.68680546  0.14043186  0.79640002    -0.74830
O978        O  0.61997306  0.08040237  0.88115617    -0.74860
O979        O  0.62149366  0.07995244  0.79270221    -0.74920
O980        O  0.67930022  0.14208722  0.88462144    -0.74970
O981        O  0.62713048  0.19467144  0.88170208    -0.74900
O982        O  0.56751131  0.13067087  0.79327032    -0.74880
O983        O  0.56679195  0.13217395  0.88239936    -0.74850
O984        O  0.63321924  0.19145245  0.79345831    -0.74920
Ni985      Ni  0.65374257  0.10891122  0.83846572     1.25410
Ni986      Ni  0.59665449  0.16406594  0.83726376     1.25360
C987        C  0.67097379  0.17514698  0.77990779     0.87350
C988        C  0.58603953  0.09870879  0.89909664     0.87280
C989        C  0.58502038  0.09591924  0.77701993     0.87310
C990        C  0.65999496  0.17642739  0.90056690     0.87480
C991        C  0.07182581  0.76272456  0.57321415     0.02720
C992        C  0.03265797  0.74566774  0.59280054    -0.13430
C993        C  0.01141925  0.70829935  0.57581891     0.00220
C994        C  0.02950135  0.68847291  0.53891258    -0.11950
C995        C  0.06850802  0.70415539  0.51925481     0.02720
C996        C  0.08916776  0.74159882  0.53624711    -0.11370
H997        H  0.01935380  0.76077804  0.62169515     0.08310
H998        H  0.01378965  0.65955760  0.52600015     0.05840
H999        H  0.11976920  0.75339820  0.52148129     0.05690
O1000       O  0.18696093  0.62596140  0.46527708    -0.74830
O1001       O  0.12171359  0.68696059  0.37873056    -0.74860
O1002       O  0.12591568  0.69209392  0.46630462    -0.74920
O1003       O  0.18089187  0.62405399  0.37790242    -0.74970
O1004       O  0.12733915  0.57360265  0.38272493    -0.74900
O1005       O  0.07076038  0.64354194  0.47021859    -0.74880
O1006       O  0.06810163  0.63653350  0.38235814    -0.74850
O1007       O  0.13190606  0.57741161  0.47021100    -0.74920
Ni1008     Ni  0.15587514  0.65900477  0.42230979     1.25410
Ni1009     Ni  0.09747729  0.60610736  0.42706548     1.25360
C1010       C  0.17017754  0.59156592  0.48219462     0.87350
C1011       C  0.08711785  0.66826563  0.36319502     0.87280
C1012       C  0.08916454  0.67900591  0.48319759     0.87310
C1013       C  0.16047633  0.59083169  0.36294746     0.87480
C1014       C  0.20771028  0.75368427  0.68625811     0.02720
C1015       C  0.18606573  0.73469944  0.72131320    -0.13430
C1016       C  0.20134811  0.69518181  0.73820640     0.00220
C1017       C  0.23996070  0.67503435  0.72094673    -0.11950
C1018       C  0.26245254  0.69353908  0.68615128     0.02720
C1019       C  0.24621997  0.73316354  0.66901007    -0.11370
H1020       H  0.15593878  0.74987321  0.73453086     0.08310
H1021       H  0.25156035  0.64414133  0.73356350     0.05840
H1022       H  0.26259843  0.74733013  0.64140696     0.05690
C1023       C  0.25689795  0.56581463  0.56713559     0.02720
C1024       C  0.23511626  0.58506237  0.53232333    -0.13430
C1025       C  0.19469579  0.56835671  0.51669585     0.00220
C1026       C  0.17646001  0.53079161  0.53566797    -0.11950
C1027       C  0.19698379  0.51028441  0.57078750     0.02720
C1028       C  0.23741411  0.52831334  0.58640614    -0.11370
H1029       H  0.24904131  0.61414814  0.51805494     0.08310
H1030       H  0.14500749  0.51830610  0.52381093     0.05840
H1031       H  0.25303875  0.51384650  0.61403321     0.05690
O1032       O  0.31413395  0.63268634  0.67871514    -0.74830
O1033       O  0.41089599  0.57711064  0.61555494    -0.74860
O1034       O  0.40612736  0.63261772  0.67908151    -0.74920
O1035       O  0.31711332  0.57037917  0.61718050    -0.74970
O1036       O  0.31122679  0.62439694  0.57036339    -0.74900
O1037       O  0.40904670  0.68234402  0.62739518    -0.74880
O1038       O  0.40364903  0.62651674  0.56405881    -0.74850
O1039       O  0.31688391  0.68651265  0.63132006    -0.74920
Ni1040     Ni  0.36171459  0.60093964  0.64921471     1.25410
Ni1041     Ni  0.35968695  0.65683448  0.59652314     1.25360
C1042       C  0.29999861  0.66979774  0.66490385     0.87350
C1043       C  0.42667379  0.59757247  0.58287736     0.87280
C1044       C  0.42560553  0.66443199  0.66095099     0.87310
C1045       C  0.29742378  0.58764386  0.58533263     0.87480
C1046       C  0.05507016  0.51977364  0.68379525     0.02720
C1047       C  0.07551702  0.53879119  0.71949756    -0.13430
C1048       C  0.05778712  0.57633503  0.73924687     0.00220
C1049       C  0.01766740  0.59438740  0.72447636    -0.11950
C1050       C  0.99609536  0.57666283  0.68886019     0.02720
C1051       C  0.01506038  0.53905053  0.66838797    -0.11370
H1052       H  0.10673123  0.52524234  0.73118306     0.08310
H1053       H  0.00434299  0.62373660  0.73961271     0.05840
H1054       H  0.99955354  0.52562987  0.64013073     0.05690
O1055       O  0.13828834  0.45689395  0.57382037    -0.74830
O1056       O  0.05998553  0.37689270  0.63091438    -0.74860
O1057       O  0.06580372  0.46583920  0.62693685    -0.74920
O1058       O  0.13184739  0.36670482  0.58101838    -0.74970
O1059       O  0.17929998  0.36804265  0.63561524    -0.74900
O1060       O  0.11214527  0.46470063  0.68216915    -0.74880
O1061       O  0.10633786  0.37611142  0.68640104    -0.74850
O1062       O  0.18460079  0.45859202  0.62901550    -0.74920
Ni1063     Ni  0.09775413  0.41663548  0.60092533     1.25410
Ni1064     Ni  0.14740117  0.41693855  0.66014864     1.25360
C1065       C  0.17286261  0.47294695  0.59218606     0.87350
C1066       C  0.07042096  0.36311686  0.66787029     0.87280
C1067       C  0.07827523  0.48142681  0.66306510     0.87310
C1068       C  0.16377961  0.34917593  0.60250941     0.87480
O1069       O  0.94472988  0.63788693  0.68757103    -0.74830
O1070       O  0.86414188  0.71365300  0.62679624    -0.74860
O1071       O  0.85258622  0.65080559  0.68421861    -0.74920
O1072       O  0.95520837  0.70399788  0.63144154    -0.74970
O1073       O  0.95409720  0.65394344  0.57952989    -0.74900
O1074       O  0.84994149  0.60278861  0.63037584    -0.74880
O1075       O  0.86452459  0.66414433  0.57400374    -0.74850
O1076       O  0.94124879  0.58856870  0.63512598    -0.74920
Ni1077     Ni  0.90430150  0.67814668  0.65975171     1.25410
Ni1078     Ni  0.90237488  0.62543475  0.60317382     1.25360
C1079       C  0.95809737  0.60168701  0.67016289     0.87350
C1080       C  0.85181475  0.70069983  0.58975921     0.87280
C1081       C  0.83235063  0.62068036  0.66382001     0.87310
C1082       C  0.97156465  0.68798810  0.59666131     0.87480
O1083       O  0.13394084  0.81265718  0.57550848    -0.74830
O1084       O  0.20847831  0.89693167  0.63229906    -0.74860
O1085       O  0.20277799  0.80771276  0.63109941    -0.74920
O1086       O  0.14005536  0.90201840  0.57749455    -0.74970
O1087       O  0.09251713  0.90585047  0.63310944    -0.74900
O1088       O  0.15207728  0.80956972  0.68396928    -0.74880
O1089       O  0.16009172  0.89722576  0.68728061    -0.74850
O1090       O  0.08380263  0.81654639  0.62870911    -0.74920
Ni1091     Ni  0.17297701  0.85477374  0.60199719     1.25410
Ni1092     Ni  0.12027196  0.85745199  0.66003432     1.25360
C1093       C  0.09731582  0.79954770  0.59317451     0.87350
C1094       C  0.19653897  0.91031222  0.66958244     0.87280
C1095       C  0.18704454  0.79251851  0.66622540     0.87310
C1096       C  0.10745461  0.92062051  0.59774064     0.87480
O1097       O  0.18843208  0.63716822  0.78662676    -0.74830
O1098       O  0.11958311  0.58225225  0.87293877    -0.74860
O1099       O  0.11949359  0.58066702  0.78650627    -0.74920
O1100       O  0.18581316  0.63680262  0.87323046    -0.74970
O1101       O  0.13827571  0.69374675  0.87202588    -0.74900
O1102       O  0.06964857  0.63543611  0.78776562    -0.74880
O1103       O  0.07201615  0.63919521  0.87476191    -0.74850
O1104       O  0.13872832  0.69204913  0.78558993    -0.74920
Ni1105     Ni  0.15510673  0.60720845  0.82938181     1.25410
Ni1106     Ni  0.10281533  0.66712912  0.82954329     1.25360
C1107       C  0.17507357  0.67384618  0.77195225     0.87350
C1108       C  0.08790946  0.60423642  0.89089849     0.87280
C1109       C  0.08327560  0.59841663  0.77309350     0.87310
C1110       C  0.17002952  0.67220452  0.88938790     0.87480
C1111       C  0.75359864  0.32691421  0.30948178     0.02720
C1112       C  0.77372930  0.34233513  0.27198617    -0.13430
C1113       C  0.81265519  0.32185529  0.25525437     0.00220
C1114       C  0.83076038  0.28549914  0.27599224    -0.11950
C1115       C  0.81130061  0.27011847  0.31379518     0.02720
C1116       C  0.77233296  0.29035853  0.32984308    -0.11370
H1117       H  0.76016740  0.37123633  0.25691579     0.08310
H1118       H  0.86134889  0.27036449  0.26373236     0.05840
H1119       H  0.75775765  0.27871272  0.35943863     0.05690
O1120       O  0.70160424  0.38745833  0.31669248    -0.74830
O1121       O  0.60525392  0.44189344  0.38027540    -0.74860
O1122       O  0.69770386  0.44651292  0.38151432    -0.74920
O1123       O  0.60947612  0.38873964  0.31407964    -0.74970
O1124       O  0.60626850  0.33600939  0.36281523    -0.74900
O1125       O  0.69947385  0.39179348  0.42788221    -0.74880
O1126       O  0.60739148  0.38885986  0.42882610    -0.74850
O1127       O  0.69815433  0.33293058  0.36327330    -0.74920
Ni1128     Ni  0.65389516  0.41832654  0.34658590     1.25410
Ni1129     Ni  0.65326603  0.36036999  0.39727598     1.25360
C1130       C  0.71562837  0.35030201  0.33023793     0.87350
C1131       C  0.58789159  0.42137863  0.41212907     0.87280
C1132       C  0.71408283  0.42898997  0.41493434     0.87310
C1133       C  0.59030207  0.35540729  0.32980221     0.87480
C1134       C  0.80612410  0.45325127  0.49542466     0.02720
C1135       C  0.76900001  0.43420091  0.47527929    -0.13430
C1136       C  0.75121064  0.45185057  0.43772969     0.00220
C1137       C  0.77088332  0.49001886  0.42057260    -0.11950
C1138       C  0.80821653  0.51002716  0.43997934     0.02720
C1139       C  0.82528501  0.49121253  0.47761901    -0.11370
H1140       H  0.75456143  0.40473305  0.48827856     0.08310
H1141       H  0.75806275  0.50335686  0.39115011     0.05840
H1142       H  0.85444498  0.50545278  0.49247578     0.05690
C1143       C  0.94463452  0.50028193  0.32275970     0.02720
C1144       C  0.98337152  0.48219142  0.34124567    -0.13430
C1145       C  0.00382601  0.44438908  0.32404482     0.00220
C1146       C  0.98504214  0.42493107  0.28714205    -0.11950
C1147       C  0.94620514  0.44252537  0.26795224     0.02720
C1148       C  0.92667979  0.48044942  0.28604549    -0.11370
H1149       H  0.99689024  0.49684566  0.36988418     0.08310
H1150       H  0.99993333  0.39531780  0.27398243     0.05840
H1151       H  0.89664055  0.49410330  0.27200501     0.05690
C1152       C  0.93408530  0.32512243  0.50447968     0.02720
C1153       C  0.97410214  0.34218339  0.48675303    -0.13430
C1154       C  0.99430609  0.32302256  0.44999169     0.00220
C1155       C  0.97478057  0.28617217  0.43172199    -0.11950
C1156       C  0.93478878  0.26907447  0.44804382     0.02720
C1157       C  0.91485900  0.28828221  0.48473656    -0.11370
H1158       H  0.98863658  0.37122555  0.50063673     0.08310
H1159       H  0.98990652  0.27172792  0.40329049     0.05840
H1160       H  0.88347632  0.27550312  0.49696540     0.05690
O1161       O  0.05715146  0.43845058  0.38197998    -0.74830
O1162       O  0.14153945  0.36836306  0.44546042    -0.74860
O1163       O  0.14966342  0.43192589  0.38767280    -0.74920
O1164       O  0.05071605  0.37748484  0.44375516    -0.74970
O1165       O  0.04947606  0.32570825  0.39346371    -0.74900
O1166       O  0.14874012  0.38014692  0.33715580    -0.74880
O1167       O  0.14055604  0.31774817  0.39379551    -0.74850
O1168       O  0.05698397  0.38645529  0.33193654    -0.74920
Ni1169     Ni  0.09983732  0.40612285  0.41643851     1.25410
Ni1170     Ni  0.09877854  0.35092595  0.36214053     1.25360
C1171       C  0.04166935  0.42260420  0.34687008     0.87350
C1172       C  0.15479469  0.33150364  0.42950565     0.87280
C1173       C  0.16723966  0.41320959  0.35499837     0.87310
C1174       C  0.03364188  0.34282304  0.42822574     0.87480
O1175       O  0.87181822  0.33379130  0.55377178    -0.74830
O1176       O  0.80279550  0.39945318  0.63720743    -0.74860
O1177       O  0.80832263  0.39749914  0.54932024    -0.74920
O1178       O  0.86523810  0.33691494  0.64150550    -0.74970
O1179       O  0.91665327  0.38949733  0.64394322    -0.74900
O1180       O  0.86280215  0.44687292  0.54904411    -0.74880
O1181       O  0.85495567  0.45136485  0.63564970    -0.74850
O1182       O  0.92594474  0.38342809  0.55627672    -0.74920
Ni1183     Ni  0.83515002  0.36501894  0.59530569     1.25410
Ni1184     Ni  0.89210082  0.41941527  0.59625567     1.25360
C1185       C  0.90981273  0.34821533  0.54035748     0.87350
C1186       C  0.81808874  0.43603526  0.65039985     0.87280
C1187       C  0.82651956  0.43171275  0.53331384     0.87310
C1188       C  0.89867935  0.35519665  0.65941693     0.87480
O1189       O  0.87573125  0.32530376  0.20789998    -0.74830
O1190       O  0.94657762  0.38654270  0.12696837    -0.74860
O1191       O  0.94154879  0.38535505  0.21453554    -0.74920
O1192       O  0.88440722  0.32709265  0.12008508    -0.74970
O1193       O  0.83488296  0.38200165  0.11692214    -0.74900
O1194       O  0.88862698  0.43717223  0.21455903    -0.74880
O1195       O  0.89620056  0.44118765  0.12831453    -0.74850
O1196       O  0.82333855  0.37755524  0.20426681    -0.74920
Ni1197     Ni  0.91394549  0.35408019  0.16782353     1.25410
Ni1198     Ni  0.85877580  0.41120936  0.16629286     1.25360
C1199       C  0.83803729  0.34199599  0.22014002     0.87350
C1200       C  0.93015283  0.42179606  0.11178276     0.87280
C1201       C  0.92458971  0.42068628  0.23041688     0.87310
C1202       C  0.85336956  0.34766451  0.10033890     0.87480
O1203       O  0.86851063  0.56236547  0.43507670    -0.74830
O1204       O  0.94189910  0.64458854  0.37353692    -0.74860
O1205       O  0.87500042  0.65256077  0.42815042    -0.74920
O1206       O  0.93671747  0.55518108  0.37748726    -0.74970
O1207       O  0.88608704  0.55430049  0.32566487    -0.74900
O1208       O  0.82520588  0.65336277  0.37544551    -0.74880
O1209       O  0.89234882  0.64291300  0.32062530    -0.74850
O1210       O  0.81807047  0.56273086  0.38318523    -0.74920
Ni1211     Ni  0.90699003  0.60346037  0.40570313     1.25410
Ni1212     Ni  0.85341890  0.60312783  0.34955634     1.25360
C1213       C  0.83228168  0.54735984  0.41873055     0.87350
C1214       C  0.92827313  0.65805569  0.33732612     0.87280
C1215       C  0.84406670  0.67195653  0.40711515     0.87310
C1216       C  0.92154545  0.53857612  0.34286184     0.87480
O1217       O  0.81516961  0.22011042  0.37187268    -0.74830
O1218       O  0.87520653  0.13073134  0.43411096    -0.74860
O1219       O  0.87438288  0.21962913  0.43678481    -0.74920
O1220       O  0.81748206  0.13145516  0.37161054    -0.74970
O1221       O  0.87214082  0.13284209  0.32207006    -0.74900
O1222       O  0.93112622  0.21857358  0.38973743    -0.74880
O1223       O  0.92972828  0.12958853  0.38440762    -0.74850
O1224       O  0.87206859  0.22113464  0.32498669    -0.74920
Ni1225     Ni  0.84346735  0.17577634  0.40530769     1.25410
Ni1226     Ni  0.90340678  0.17596395  0.35369244     1.25360
C1227       C  0.83371027  0.23524057  0.33798253     0.87350
C1228       C  0.91020070  0.11319379  0.41695888     0.87280
C1229       C  0.91249536  0.23371676  0.42402281     0.87310
C1230       C  0.83695542  0.11573721  0.33824778     0.87480
O1231       O  0.03326620  0.36421127  0.79524553    -0.81300
O1232       O  0.97965818  0.22641805  0.66795986    -0.65990
O1233       O  0.98023368  0.29558147  0.76756487    -1.12590
C1234       C  0.07325304  0.19244295  0.82596138     1.05590
O1235       O  0.97466547  0.16516674  0.70483272    -0.79190
O1236       O  0.96209609  0.18242881  0.78352194    -0.66780
Ni1237     Ni  0.97783883  0.35772747  0.76532290     1.34870
C1238       C  0.96141662  0.19926816  0.82020810     0.84330
O1239       O  0.93938429  0.29853705  0.68749771    -0.79730
O1240       O  0.92506177  0.35609457  0.73040573    -0.90010
C1241       C  0.96080878  0.19030880  0.67573804     0.83900
O1242       O  0.01277329  0.36575385  0.71583385    -0.68210
O1243       O  0.05018546  0.16653011  0.80301244    -0.87500
C1244       C  0.03624117  0.34030072  0.69279838     0.84730
C1245       C  0.92052239  0.33480446  0.69545980     1.06300
H1246       H  0.05477386  0.23082214  0.72881136     0.38100
O1247       O  0.02645017  0.22881457  0.74402039    -1.10160
O1248       O  0.98700065  0.23115515  0.83018541    -0.66810
Ni1249     Ni  0.02893280  0.26485684  0.79352929     1.26350
O1250       O  0.03038140  0.29878576  0.69087850    -0.67040
O1251       O  0.07688957  0.23282964  0.81823086    -0.79330
C1252       C  0.05257622  0.34130975  0.82320049     0.84110
O1253       O  0.03506625  0.30656656  0.83710045    -0.66510
Ni1254     Ni  0.01439401  0.16902563  0.75202692     1.27450
Ni1255     Ni  0.98203809  0.26354519  0.71600491     1.26060
H1256       H  0.95292248  0.28725241  0.78219024     0.38660
C1257       C  0.06310449  0.25569992  0.07135012     0.02720
C1258       C  0.02612103  0.23537536  0.09141493    -0.13430
C1259       C  0.00916148  0.19544967  0.07555051     0.00220
C1260       C  0.02914249  0.17642755  0.03916741    -0.11950
C1261       C  0.06606649  0.19564686  0.01899279     0.02720
C1262       C  0.08258432  0.23539777  0.03496575    -0.11370
H1263       H  0.01138643  0.24994692  0.11995714     0.08310
H1264       H  0.01670888  0.14560428  0.02717582     0.05840
H1265       H  0.11156532  0.24993712  0.01964684     0.05690
O1266       O  0.12196535  0.30846064  0.07409736    -0.74830
O1267       O  0.19123287  0.39675664  0.13050546    -0.74860
O1268       O  0.18669980  0.30662743  0.13433972    -0.74920
O1269       O  0.12432357  0.39790056  0.07047653    -0.74970
O1270       O  0.07321959  0.40414351  0.12256401    -0.74900
O1271       O  0.13325339  0.31021221  0.18435994    -0.74880
O1272       O  0.13987512  0.39948707  0.18281217    -0.74850
O1273       O  0.06851579  0.31359771  0.12415565    -0.74920
Ni1274     Ni  0.15784594  0.35262376  0.10055711     1.25410
Ni1275     Ni  0.10185078  0.35742041  0.15518089     1.25360
C1276       C  0.08497998  0.29498159  0.09048460     0.87350
C1277       C  0.17797504  0.41101633  0.16706210     0.87280
C1278       C  0.16923392  0.29192833  0.16928462     0.87310
C1279       C  0.08796569  0.41561148  0.08557830     0.87480
C1280       C  0.05679765  0.00341514  0.19297160     0.02720
C1281       C  0.01775067  0.02298174  0.17635886    -0.13430
C1282       C  0.99973875  0.06171407  0.19451076     0.00220
C1283       C  0.02014086  0.08017499  0.23002335    -0.11950
C1284       C  0.05946248  0.06245298  0.24677842     0.02720
C1285       C  0.07758810  0.02368140  0.22845210    -0.11370
H1286       H  0.00235362  0.00900352  0.14829148     0.08310
H1287       H  0.00627704  0.11007171  0.24357785     0.05840
H1288       H  0.10837876  0.01007039  0.24102319     0.05690
C1289       C  0.24679245  0.19269326  0.19459074     0.02720
C1290       C  0.22884725  0.23100040  0.17539280    -0.13430
C1291       C  0.18979772  0.25253440  0.19195260     0.00220
C1292       C  0.16881971  0.23430391  0.22883418    -0.11950
C1293       C  0.18601128  0.19605785  0.24875606     0.02720
C1294       C  0.22519002  0.17633027  0.23131090    -0.11370
H1295       H  0.24467434  0.24346112  0.14672698     0.08310
H1296       H  0.13835614  0.24929308  0.24148635     0.05840
H1297       H  0.23812163  0.14673469  0.24555002     0.05690
O1298       O  0.17849254  0.13886162  0.30170830    -0.74830
O1299       O  0.10970906  0.07232513  0.38404270    -0.74860
O1300       O  0.11828425  0.07276218  0.29757829    -0.74920
O1301       O  0.17068058  0.13644558  0.38976705    -0.74970
O1302       O  0.11600485  0.18664892  0.38761953    -0.74900
O1303       O  0.06327110  0.12241877  0.29589324    -0.74880
O1304       O  0.05574147  0.12325477  0.38272624    -0.74850
O1305       O  0.12362667  0.18847657  0.29911026    -0.74920
Ni1306     Ni  0.14647600  0.10358999  0.34336933     1.25410
Ni1307     Ni  0.08787938  0.15710418  0.34106755     1.25360
C1308       C  0.16173567  0.17383582  0.28534599     0.87350
C1309       C  0.07145461  0.08727424  0.39711133     0.87280
C1310       C  0.08150858  0.08680503  0.28187378     0.87310
C1311       C  0.15056470  0.17006160  0.40556299     0.87480
C1312       C  0.18818005  0.05988343  0.01612747     0.02720
C1313       C  0.16849581  0.02169538  0.03304992    -0.13430
C1314       C  0.18572284  0.00178976  0.07025498     0.00220
C1315       C  0.22298581  0.02077760  0.09023211    -0.11950
C1316       C  0.24255139  0.05893646  0.07407488     0.02720
C1317       C  0.22544293  0.07757046  0.03674674    -0.11370
H1318       H  0.13906160  0.00822143  0.01800147     0.08310
H1319       H  0.23599323  0.00659524  0.11921285     0.05840
H1320       H  0.24027622  0.10717328  0.02448000     0.05690
O1321       O  0.29625188  0.11566764  0.08084843    -0.74830
O1322       O  0.39466874  0.16966198  0.13541003    -0.74860
O1323       O  0.38647769  0.10798764  0.07763366    -0.74920
O1324       O  0.30260554  0.18051925  0.13916892    -0.74970
O1325       O  0.29945175  0.13105728  0.19073931    -0.74900
O1326       O  0.38646636  0.05789105  0.12897804    -0.74880
O1327       O  0.39306587  0.12079934  0.18790077    -0.74850
O1328       O  0.29454679  0.06529527  0.13177264    -0.74920
Ni1329     Ni  0.34499616  0.14537166  0.10680767     1.25410
Ni1330     Ni  0.34303614  0.09217969  0.16209114     1.25360
C1331       C  0.27964542  0.08085160  0.09670468     0.87350
C1332       C  0.41277680  0.15138497  0.16766843     0.87280
C1333       C  0.40064454  0.07174370  0.09267399     0.87310
C1334       C  0.28527470  0.16715992  0.17426058     0.87480
O1335       O  0.07121710  0.13808657  0.96690702    -0.74830
O1336       O  0.13196240  0.07642582  0.87610390    -0.74860
O1337       O  0.13089842  0.07109961  0.96393224    -0.74920
O1338       O  0.07319578  0.14026960  0.87977247    -0.74970
O1339       O  0.12738896  0.19020165  0.88183103    -0.74900
O1340       O  0.18633821  0.11939661  0.96604735    -0.74880
O1341       O  0.18621923  0.12629953  0.87801585    -0.74850
O1342       O  0.12659763  0.18651799  0.96913869    -0.74920
Ni1343     Ni  0.09986932  0.10472040  0.92192348     1.25410
Ni1344     Ni  0.15880907  0.15717836  0.92423971     1.25360
C1345       C  0.08888038  0.17249974  0.98304168     0.87350
C1346       C  0.16639154  0.09473618  0.85940811     0.87280
C1347       C  0.16782325  0.08423619  0.97983727     0.87310
C1348       C  0.09236248  0.17407349  0.86458418     0.87480
O1349       O  0.12601177  0.94964212  0.07503874    -0.74830
O1350       O  0.06013498  0.85913535  0.13247717    -0.74860
O1351       O  0.06114219  0.94900362  0.13634635    -0.74920
O1352       O  0.12761395  0.86089167  0.07215499    -0.74970
O1353       O  0.17761936  0.85727128  0.12453723    -0.74900
O1354       O  0.11431195  0.94829182  0.18574819    -0.74880
O1355       O  0.11071580  0.85950137  0.18445898    -0.74850
O1356       O  0.17896541  0.94662830  0.12459196    -0.74920
Ni1357     Ni  0.09180729  0.90438477  0.10222703     1.25410
Ni1358     Ni  0.14720339  0.90252732  0.15657351     1.25360
C1359       C  0.16277599  0.96382634  0.09062612     0.87350
C1360       C  0.07353520  0.84595937  0.16890597     0.87280
C1361       C  0.07804117  0.96467921  0.17087011     0.87310
C1362       C  0.16444859  0.84575442  0.08744993     0.87480
O1363       O  0.94963919  0.12311837  0.18965433    -0.74830
O1364       O  0.86288980  0.19101039  0.12924061    -0.74860
O1365       O  0.85756268  0.13078997  0.18748878    -0.74920
O1366       O  0.95477279  0.18820523  0.13172147    -0.74970
O1367       O  0.95680516  0.13645564  0.08135354    -0.74900
O1368       O  0.85538696  0.08170803  0.13450728    -0.74880
O1369       O  0.86615681  0.14069451  0.07718170    -0.74850
O1370       O  0.94738164  0.07181126  0.13892017    -0.74920
Ni1371     Ni  0.90674481  0.16004626  0.16157394     1.25410
Ni1372     Ni  0.90692450  0.10570244  0.10630185     1.25360
C1373       C  0.96322772  0.08635428  0.17379439     0.87350
C1374       C  0.84747831  0.17357982  0.09516111     0.87280
C1375       C  0.83697527  0.10121013  0.16675808     0.87310
C1376       C  0.97172353  0.17231402  0.09723911     0.87480
loop_ 
_geom_bond_atom_site_label_1 
_geom_bond_atom_site_label_2 
_geom_bond_distance 
_geom_bond_site_symmetry_2 
_ccdc_geom_bond_type 
O1           Ni7   1.902       .  S
O1           C22   1.259       .  A
O2          Ni25   1.876       .  S
O2           C11   1.270       .  A
O3           Ni7   1.906       .  S
O3          Ni25   1.882       .  S
O3          Ni19   1.905       .  S
O3           H26   0.966       .  S
C4           O21   1.262       .  A
C4           O13   1.271       .  A
C4          C429   1.410       .  S
O5          Ni24   1.884       .  S
O5           C11   1.259       .  A
O6          Ni24   1.901       .  S
O6            C8   1.266       .  A
Ni7          O10   1.907       .  S
Ni7          O12   1.895       .  S
C8           O18   1.284       .  A
C8          C719   1.474       .  S
O9          Ni25   1.866       .  S
O9           C15   1.256       .  A
O10          C15   1.269       .  A
C11        C1131   1.448       .  S
O12          C14   1.265       .  A
O13         Ni24   1.891       .  S
C14          O20   1.294       .  A
C14         C654   1.475       .  S
C15         C948   1.415       .  S
H16          O17   0.966       .  S
O17         Ni25   1.888       .  S
O17         Ni19   1.867       .  S
O17         Ni24   1.897       .  S
O18         Ni19   1.963       .  S
Ni19         O23   1.855       .  S
Ni19         O21   1.874       .  S
O20         Ni25   2.001       .  S
C22          O23   1.266       .  A
C22        C1043   1.463       .  S
O27         Ni33   1.902       .  S
O27          C48   1.265       .  A
O28         Ni51   1.898       .  S
O28          C37   1.271       .  A
O29         Ni33   1.918       .  S
O29         Ni51   1.902       .  S
O29         Ni45   1.912       .  S
O29          H52   0.967       .  S
C30          O47   1.254       .  A
C30          O39   1.269       .  A
C30         C512   1.453       .  S
O31         Ni50   1.898       .  S
O31          C37   1.265       .  A
O32         Ni50   1.883       .  S
O32          C34   1.260       .  A
Ni33         O36   1.931       .  S
Ni33         O38   1.883       .  S
C34          O44   1.292       .  A
C34         C909   1.481       .  S
O35         Ni51   1.890       .  S
O35          C41   1.263       .  A
O36          C41   1.269       .  A
C37        C1133   1.468       .  S
O38          C40   1.258       .  A
O39         Ni50   1.934       .  S
C40          O46   1.295       .  A
C40         C668   1.485       .  S
C41         C776   1.452       .  S
H42          O43   0.967       .  S
O43         Ni51   1.925       .  S
O43         Ni45   1.903       .  S
O43         Ni50   1.921       .  S
O44         Ni45   2.007       .  S
Ni45         O49   1.875       .  S
Ni45         O47   1.886       .  S
O46         Ni51   2.013       .  S
C48          O49   1.261       .  A
C48        C1332   1.458       .  S
C53         C143   1.531       .  S
C53          C54   1.423       .  A
C53          C58   1.423       .  A
C54          C55   1.427       .  A
C54          H59   1.083       .  S
C55         C155   1.511       .  S
C55          C56   1.407       .  A
C56          C57   1.408       .  A
C56          H60   1.083       .  S
C57         C127   1.510       .  S
C57          C58   1.423       .  A
C58          H61   1.083       .  S
C62         C157   1.496       .  S
C62          C63   1.409       .  A
C62          C67   1.411   1_565  A
C63          C64   1.406       .  A
C63          H68   1.083       .  S
C64         C115   1.492   1_556  S
C64          C65   1.413       .  A
C65          C66   1.408   1_565  A
C65          H69   1.083   1_565  S
C66         C169   1.499       .  S
C66          C67   1.415       .  A
C67          H70   1.083       .  S
C71         C113   1.500   1_556  S
C71          C72   1.414       .  A
C71          C76   1.409       .  A
C72          C73   1.417   1_655  A
C72          H77   1.083       .  S
C73         C101   1.486       .  S
C73          C74   1.401   1_455  A
C74          C75   1.397       .  A
C74          H78   1.083   1_655  S
C75         C141   1.481       .  S
C75          C76   1.409       .  A
C76          H79   1.083       .  S
C80         C172   1.499       .  S
C80          C81   1.408   1_545  A
C80          C85   1.419   1_545  A
C81          C82   1.401   1_655  A
C81          H86   1.083   1_665  S
C82          C99   1.489       .  S
C82          C83   1.409   1_455  A
C83          C84   1.407       .  A
C83          H87   1.083   1_655  S
C84         C129   1.504       .  S
C84          C85   1.420       .  A
C85          H88   1.083   1_565  S
O89         Ni97   1.909       .  S
O89          C99   1.279       .  A
O90         Ni97   1.893       .  S
O90         C100   1.272       .  A
O91         Ni97   1.922       .  S
O91         C101   1.286       .  A
O92         Ni97   1.912       .  S
O92         C102   1.285       .  A
O93         Ni98   1.905       .  S
O93         C102   1.275       .  A
O94         Ni98   1.918       .  S
O94         C101   1.279       .  A
O95         Ni98   1.914       .  S
O95         C100   1.286       .  A
O96         Ni98   1.933       .  S
O96          C99   1.287       .  A
Ni97        Ni98   2.391       .  S
C100        C272   1.453       .  S
C102        C324   1.461       .  S
O103       Ni111   1.928       .  S
O103        C113   1.285       .  A
O104       Ni111   1.925       .  S
O104        C114   1.280       .  A
O105       Ni111   1.940       .  S
O105        C115   1.288       .  A
O106       Ni111   1.923       .  S
O106        C116   1.281       .  A
O107       Ni112   1.897       .  S
O107        C116   1.278       .  A
O108       Ni112   1.910       .  S
O108        C115   1.279       .  A
O109       Ni112   1.920       .  S
O109        C114   1.284       .  A
O110       Ni112   1.937       .  S
O110        C113   1.285       .  A
Ni111      Ni112   2.387       .  S
C114        C540   1.466       .  S
C116        C369   1.459       .  S
O117       Ni125   1.935       .  S
O117        C127   1.282       .  A
O118       Ni125   1.915       .  S
O118        C128   1.278       .  A
O119       Ni125   1.941       .  S
O119        C129   1.289       .  A
O120       Ni125   1.936       .  S
O120        C130   1.287       .  A
O121       Ni126   1.938       .  S
O121        C130   1.282       .  A
O122       Ni126   1.931       .  S
O122        C129   1.282       .  A
O123       Ni126   1.937       .  S
O123        C128   1.286       .  A
O124       Ni126   1.944       .  S
O124        C127   1.290       .  A
Ni125      Ni126   2.382       .  S
C128        C858   1.473       .  S
C130        C332   1.490       .  S
O131       Ni139   1.929       .  S
O131        C141   1.287       .  A
O132       Ni139   1.916       .  S
O132        C142   1.279       .  A
O133       Ni139   1.954       .  S
O133        C143   1.288       .  A
O134       Ni139   1.956       .  S
O134        C144   1.286       .  A
O135       Ni140   1.952       .  S
O135        C144   1.290       .  A
O136       Ni140   1.966       .  S
O136        C143   1.291       .  A
O137       Ni140   1.888       .  S
O137        C142   1.276       .  A
O138       Ni140   1.899       .  S
O138        C141   1.276       .  A
Ni139      Ni140   2.382       .  S
C142        C822   1.447       .  S
C144        C284   1.507       .  S
O145       Ni153   1.958       .  S
O145        C155   1.294       .  A
O146       Ni153   1.949       .  S
O146        C156   1.286       .  A
O147       Ni153   1.938       .  S
O147        C157   1.285       .  A
O148       Ni153   1.928       .  S
O148        C158   1.279       .  A
O149       Ni154   1.901       .  S
O149        C158   1.283       .  A
O150       Ni154   1.920       .  S
O150        C157   1.283       .  A
O151       Ni154   1.898       .  S
O151        C156   1.279       .  A
O152       Ni154   1.922       .  S
O152        C155   1.279       .  A
Ni153      Ni154   2.384       .  S
C156        C394   1.470       .  S
C158        C235   1.468       .  S
O159       Ni167   1.949       .  S
O159        C169   1.290       .  A
O160       Ni167   1.942       .  S
O160        C170   1.284       .  A
O161       Ni167   1.924       .  S
O161        C171   1.278       .  A
O162       Ni167   1.927       .  S
O162        C172   1.286       .  A
O163       Ni168   1.933       .  S
O163        C172   1.283       .  A
O164       Ni168   1.914       .  S
O164        C171   1.285       .  A
O165       Ni168   1.905       .  S
O165        C170   1.279       .  A
O166       Ni168   1.914       .  S
O166        C169   1.279       .  A
Ni167      Ni168   2.385       .  S
C170       C1238   1.467       .  S
C171        C566   1.464       .  S
O173       Ni179   1.899       .  S
O173        C194   1.263       .  A
O174       Ni197   1.866       .  S
O174        C183   1.258       .  A
O175       Ni179   1.917       .  S
O175       Ni197   1.903       .  S
O175       Ni191   1.907       .  S
O175        H198   0.966       .  S
C176        O193   1.257       .  A
C176        O185   1.272       .  A
C176       C1013   1.449       .  S
O177       Ni196   1.915       .  S
O177        C183   1.266       .  A
O178       Ni196   1.867       .  S
O178        C180   1.255       .  A
Ni179       O182   1.922       .  S
Ni179       O184   1.883       .  S
C180        O190   1.286       .  A
C180        C427   1.464       .  S
O181       Ni197   1.885       .  S
O181        C187   1.256       .  A
O182        C187   1.270       .  A
C183        C761   1.462       .  S
O184        C186   1.259       .  A
O185       Ni196   1.931       .  S
C186        O192   1.285       .  A
C186       C1277   1.475       .  S
C187        C669   1.447       .  S
H188        O189   0.966       .  S
O189       Ni197   1.911       .  S
O189       Ni191   1.913       .  S
O189       Ni196   1.921       .  S
O190       Ni191   1.995       .  S
Ni191       O195   1.884       .  S
Ni191       O193   1.881       .  S
O192       Ni197   1.987       .  S
C194        O195   1.263       .  A
C194       C1173   1.455       .  S
O199       Ni205   1.912       .  S
O199        C220   1.270       .  A
O200       Ni223   1.880       .  S
O200        C209   1.263       .  A
O201       Ni205   1.916       .  S
O201       Ni223   1.895       .  S
O201       Ni217   1.917       .  S
O201        H224   0.966       .  S
C202        O219   1.259       .  A
C202        O211   1.273       .  A
C202        C656   1.459       .  S
O203       Ni222   1.913       .  S
O203        C209   1.268       .  A
O204       Ni222   1.870       .  S
O204        C206   1.253       .  A
Ni205       O208   1.960       .  S
Ni205       O210   1.873       .  S
C206        O216   1.292       .  A
C206        C923   1.457       .  S
O207       Ni223   1.883       .  S
O207        C213   1.257       .  A
O208        C213   1.273       .  A
C209        C510   1.470       .  S
O210        C212   1.255       .  A
O211       Ni222   1.951       .  S
C212        O218   1.290       .  A
C212       C1172   1.452       .  S
C213       C1311   1.464       .  S
H214        O215   0.966       .  S
O215       Ni223   1.912       .  S
O215       Ni217   1.898       .  S
O215       Ni222   1.915       .  S
O216       Ni217   1.993       .  S
Ni217       O221   1.897       .  S
Ni217       O219   1.885       .  S
O218       Ni223   1.986       .  S
C220        O221   1.269       .  A
C220       C1068   1.472       .  S
O225       Ni231   1.907       .  S
O225        C246   1.266       .  A
O226       Ni249   1.897       .  S
O226        C235   1.267       .  A
O227       Ni231   1.925       .  S
O227       Ni249   1.909       .  S
O227       Ni243   1.923       .  S
O227        H250   0.967       .  S
C228        O245   1.261       .  A
C228        O237   1.271       .  A
C228        C628   1.457       .  S
O229       Ni248   1.899       .  S
O229        C235   1.265       .  A
O230       Ni248   1.878       .  S
O230        C232   1.259       .  A
Ni231       O234   1.938       .  S
Ni231       O236   1.869       .  S
C232        O242   1.288       .  A
C232        C788   1.477       .  S
O233       Ni249   1.884       .  S
O233        C239   1.256       .  A
O234        C239   1.270       .  A
O236        C238   1.255       .  A
O237       Ni248   1.926       .  S
C238        O244   1.293       .  A
C238        C496   1.466       .  S
C239        C962   1.454       .  S
H240        O241   0.967       .  S
O241       Ni249   1.913       .  S
O241       Ni243   1.903       .  S
O241       Ni248   1.911       .  S
O242       Ni243   1.994       .  S
Ni243       O247   1.880       .  S
Ni243       O245   1.897       .  S
O244       Ni249   2.006       .  S
C246        O247   1.264       .  A
C246       C1044   1.464       .  S
O251       Ni257   1.890   1_556  S
O251        C272   1.259       .  A
O252       Ni275   1.865       .  S
O252        C261   1.260       .  A
O253       Ni257   1.919   1_556  S
O253       Ni275   1.891   1_556  S
O253       Ni269   1.910       .  S
O253        H276   0.967       .  S
C254        O271   1.255       .  A
C254        O263   1.270       .  A
C254       C1110   1.436       .  S
O255       Ni274   1.904       .  S
O255        C261   1.262       .  A
O256       Ni274   1.886   1_556  S
O256        C258   1.259       .  A
Ni257       O260   1.915       .  S
Ni257       O262   1.897       .  S
C258        O268   1.292       .  A
C258        C626   1.472       .  S
O259       Ni275   1.873       .  S
O259        C265   1.256       .  A
O260        C265   1.265       .  A
C261        C760   1.460       .  S
O262        C264   1.264       .  A
O263       Ni274   1.931   1_556  S
C264        O270   1.288       .  A
C264       C1362   1.472       .  S
C265        C466   1.429       .  S
H266        O267   0.966       .  S
O267       Ni275   1.909       .  S
O267       Ni269   1.893   1_554  S
O267       Ni274   1.921       .  S
O268       Ni269   2.001       .  S
Ni269       O273   1.876       .  S
Ni269       O271   1.868       .  S
O270       Ni275   1.989       .  S
C272        O273   1.264       .  A
O277       Ni283   1.894   1_455  S
O277        C298   1.261       .  A
O278       Ni301   1.862       .  S
O278        C287   1.263       .  A
O279       Ni283   1.931       .  S
O279       Ni301   1.889   1_556  S
O279       Ni295   1.912   1_655  S
O279        H302   0.966       .  S
C280        O297   1.252       .  A
C280        O289   1.271       .  A
C280       C1108   1.436       .  S
O281       Ni300   1.909   1_655  S
O281        C287   1.263       .  A
O282       Ni300   1.891   1_656  S
O282        C284   1.259       .  A
Ni283       O286   1.917   1_556  S
Ni283       O288   1.905   1_656  S
C284        O294   1.301       .  A
O285       Ni301   1.863       .  S
O285        C291   1.255       .  A
O286        C291   1.265       .  A
C287        C802   1.470       .  S
O288        C290   1.266       .  A
O289       Ni300   1.938   1_556  S
C290        O296   1.299       .  A
C290       C1279   1.512       .  S
C291       C1200   1.426       .  S
H292        O293   0.966       .  S
O293       Ni301   1.912   1_455  S
O293       Ni295   1.889   1_554  S
O293       Ni300   1.936       .  S
O294       Ni295   2.039   1_655  S
Ni295       O299   1.873       .  S
Ni295       O297   1.859       .  S
O296       Ni301   2.031   1_455  S
C298        O299   1.265       .  A
C298        C697   1.456       .  S
O303       Ni309   1.912       .  S
O303        C324   1.263       .  A
O304       Ni327   1.875       .  S
O304        C313   1.263       .  A
O305       Ni309   1.918       .  S
O305       Ni327   1.901   1_565  S
O305       Ni321   1.898   1_565  S
O305        H328   0.966       .  S
C306        O323   1.251       .  A
C306        O315   1.274       .  A
C306       C1346   1.454       .  S
O307       Ni326   1.915       .  S
O307        C313   1.269       .  A
O308       Ni326   1.871       .  S
O308        C310   1.254       .  A
Ni309       O312   1.915       .  S
Ni309       O314   1.868       .  S
C310        O320   1.287       .  A
C310        C682   1.458       .  S
O311       Ni327   1.887   1_565  S
O311        C317   1.261       .  A
O312        C317   1.272       .  A
C313        C925   1.461       .  S
O314        C316   1.258       .  A
O315       Ni326   1.950       .  S
C316        O322   1.283       .  A
C316       C1094   1.460       .  S
C317        C498   1.445       .  S
H318        O319   0.966       .  S
O319       Ni327   1.913       .  S
O319       Ni321   1.897       .  S
O319       Ni326   1.922       .  S
O320       Ni321   1.991       .  S
Ni321       O325   1.866   1_545  S
Ni321       O323   1.874       .  S
O322       Ni327   1.974   1_565  S
C324        O325   1.257       .  A
O329       Ni335   1.931       .  S
O329        C350   1.271       .  A
O330       Ni353   1.870       .  S
O330        C339   1.263       .  A
O331       Ni335   1.912       .  S
O331       Ni353   1.886       .  S
O331       Ni347   1.940       .  S
O331        H354   0.966       .  S
C332        O349   1.272       .  A
C332        O341   1.277       .  A
O333       Ni352   1.916       .  S
O333        C339   1.269       .  A
O334       Ni352   1.856       .  S
O334        C336   1.258       .  A
Ni335       O338   1.945       .  S
Ni335       O340   1.853       .  S
C336        O346   1.276       .  A
C336       C1080   1.437       .  S
O337       Ni353   1.927       .  S
O337        C343   1.274       .  A
O338        C343   1.284       .  A
C339       C1215   1.464       .  S
O340        C342   1.256       .  A
O341       Ni352   1.948       .  S
C342        O348   1.278       .  A
C342        C452   1.432       .  S
C343        C721   1.493       .  S
H344        O345   0.966       .  S
O345       Ni353   1.944       .  S
O345       Ni347   1.891       .  S
O345       Ni352   1.907       .  S
O346       Ni347   1.949       .  S
Ni347       O351   1.862       .  S
Ni347       O349   1.923       .  S
O348       Ni353   1.942       .  S
C350        O351   1.259       .  A
C350        C960   1.464       .  S
O355       Ni361   1.901   1_455  S
O355        C376   1.265       .  A
O356       Ni379   1.878       .  S
O356        C365   1.265       .  A
O357       Ni361   1.912       .  S
O357       Ni379   1.909       .  S
O357       Ni373   1.908   1_655  S
O357        H380   0.966       .  S
C358        O375   1.252       .  A
C358        O367   1.275       .  A
C358       C1011   1.460       .  S
O359       Ni378   1.916   1_655  S
O359        C365   1.269       .  A
O360       Ni378   1.862   1_655  S
O360        C362   1.249       .  A
Ni361       O364   1.926       .  S
Ni361       O366   1.879   1_655  S
C362        O372   1.289       .  A
C362       C1214   1.463       .  S
O363       Ni379   1.898       .  S
O363        C369   1.262       .  A
O364        C369   1.271       .  A
C365        C804   1.468       .  S
O366        C368   1.257       .  A
O367       Ni378   1.959       .  S
C368        O374   1.287       .  A
C368       C1360   1.473       .  S
H370        O371   0.966       .  S
O371       Ni379   1.919   1_455  S
O371       Ni373   1.907       .  S
O371       Ni378   1.922       .  S
O372       Ni373   2.003   1_655  S
Ni373       O377   1.885       .  S
Ni373       O375   1.875       .  S
O374       Ni379   1.992   1_455  S
C376        O377   1.261       .  A
C376        C525   1.462       .  S
O381       Ni387   1.930   1_565  S
O381        C402   1.271       .  A
O382       Ni405   1.881       .  S
O382        C391   1.260       .  A
O383       Ni387   1.914       .  S
O383       Ni405   1.922   1_554  S
O383       Ni399   1.911   1_545  S
O383        H406   0.967       .  S
C384        O401   1.256       .  A
C384        O393   1.277       .  A
C384        C464   1.464       .  S
O385       Ni404   1.926   1_545  S
O385        C391   1.270       .  A
O386       Ni404   1.867   1_544  S
O386        C388   1.252       .  A
Ni387       O390   1.964   1_554  S
Ni387       O392   1.860   1_544  S
C388        O398   1.283       .  A
C388       C1333   1.467       .  S
O389       Ni405   1.880       .  S
O389        C395   1.255       .  A
O390        C395   1.281       .  A
C391        C684   1.468       .  S
O392        C394   1.247       .  A
O393       Ni404   1.957   1_554  S
C394        O400   1.284       .  A
C395        C988   1.466       .  S
H396        O397   0.967       .  S
O397       Ni405   1.909   1_565  S
O397       Ni399   1.914   1_556  S
O397       Ni404   1.919       .  S
O398       Ni399   1.998   1_545  S
Ni399       O403   1.879       .  S
Ni399       O401   1.881       .  S
O400       Ni405   2.006   1_565  S
C402        O403   1.261       .  A
C402        C817   1.476       .  S
C407        C428   1.466       .  S
C407        C408   1.396       .  A
C407        C412   1.400       .  A
C408        C409   1.393       .  A
C408        H413   1.083       .  S
C409        C523   1.477       .  S
C409        C410   1.409       .  A
C410        C411   1.413       .  A
C410        H414   1.083       .  S
C411        C463   1.482       .  S
C411        C412   1.403       .  A
C412        H415   1.083       .  S
O416       Ni424   1.923       .  S
O416        C426   1.281       .  A
O417       Ni424   1.902       .  S
O417        C427   1.279       .  A
O418       Ni424   1.904       .  S
O418        C428   1.279       .  A
O419       Ni424   1.883       .  S
O419        C429   1.277       .  A
O420       Ni425   1.878       .  S
O420        C429   1.270       .  A
O421       Ni425   1.893       .  S
O421        C428   1.279       .  A
O422       Ni425   1.940       .  S
O422        C427   1.284       .  A
O423       Ni425   1.948       .  S
O423        C426   1.289       .  A
Ni424      Ni425   2.392       .  S
C426        C476   1.502       .  S
C430        C451   1.487       .  S
C430        C431   1.418       .  A
C430        C435   1.403       .  A
C431        C432   1.412       .  A
C431        H436   1.083       .  S
C432        C509   1.490   1_565  S
C432        C433   1.404       .  A
C433        C434   1.397       .  A
C433        H437   1.083       .  S
C434        C465   1.475       .  S
C434        C435   1.400       .  A
C435        H438   1.083       .  S
O439       Ni447   1.912       .  S
O439        C449   1.283       .  A
O440       Ni447   1.892       .  S
O440        C450   1.281       .  A
O441       Ni447   1.909       .  S
O441        C451   1.277       .  A
O442       Ni447   1.885       .  S
O442        C452   1.274       .  A
O443       Ni448   1.916       .  S
O443        C452   1.280       .  A
O444       Ni448   1.929       .  S
O444        C451   1.288       .  A
O445       Ni448   1.923       .  S
O445        C450   1.279       .  A
O446       Ni448   1.937       .  S
O446        C449   1.284       .  A
Ni447      Ni448   2.390       .  S
C449        C478   1.493       .  S
C450        C537   1.459       .  S
O453       Ni461   1.923       .  S
O453        C463   1.285       .  A
O454       Ni461   1.923       .  S
O454        C464   1.283       .  A
O455       Ni461   1.906       .  S
O455        C465   1.279       .  A
O456       Ni461   1.885       .  S
O456        C466   1.274       .  A
O457       Ni462   1.885       .  S
O457        C466   1.277       .  A
O458       Ni462   1.910       .  S
O458        C465   1.282       .  A
O459       Ni462   1.902       .  S
O459        C464   1.279       .  A
O460       Ni462   1.911       .  S
O460        C463   1.279       .  A
Ni461      Ni462   2.394       .  S
C467        C526   1.495       .  S
C467        C468   1.412       .  A
C467        C472   1.412       .  A
C468        C469   1.405       .  A
C468        H473   1.083       .  S
C469        C511   1.498   1_565  S
C469        C470   1.411       .  A
C470        C471   1.413       .  A
C470        H474   1.083       .  S
C471        C495   1.500       .  S
C471        C472   1.413       .  A
C472        H475   1.083       .  S
C476        C477   1.418       .  A
C476        C481   1.412       .  A
C477        C478   1.413       .  A
C477        H482   1.083       .  S
C478        C479   1.404       .  A
C479        C480   1.399       .  A
C479        H483   1.083       .  S
C480        C497   1.488       .  S
C480        C481   1.413       .  A
C481        H484   1.083       .  S
O485       Ni493   1.928       .  S
O485        C495   1.284       .  A
O486       Ni493   1.925       .  S
O486        C496   1.280       .  A
O487       Ni493   1.934       .  S
O487        C497   1.288       .  A
O488       Ni493   1.913       .  S
O488        C498   1.279       .  A
O489       Ni494   1.887       .  S
O489        C498   1.277       .  A
O490       Ni494   1.908       .  S
O490        C497   1.277       .  A
O491       Ni494   1.919       .  S
O491        C496   1.284       .  A
O492       Ni494   1.936       .  S
O492        C495   1.285       .  A
Ni493      Ni494   2.388       .  S
O499       Ni507   1.934       .  S
O499        C509   1.283       .  A
O500       Ni507   1.919       .  S
O500        C510   1.286       .  A
O501       Ni507   1.920       .  S
O501        C511   1.281       .  A
O502       Ni507   1.892       .  S
O502        C512   1.277       .  A
O503       Ni508   1.920       .  S
O503        C512   1.282       .  A
O504       Ni508   1.938       .  S
O504        C511   1.287       .  A
O505       Ni508   1.913       .  S
O505        C510   1.277       .  A
O506       Ni508   1.909       .  S
O506        C509   1.282       .  A
Ni507      Ni508   2.389       .  S
O513       Ni521   1.916       .  S
O513        C523   1.285       .  A
O514       Ni521   1.909       .  S
O514        C524   1.278       .  A
O515       Ni521   1.927       .  S
O515        C525   1.281       .  A
O516       Ni521   1.940       .  S
O516        C526   1.286       .  A
O517       Ni522   1.913       .  S
O517        C526   1.281       .  A
O518       Ni522   1.895       .  S
O518        C525   1.281       .  A
O519       Ni522   1.886       .  S
O519        C524   1.278       .  A
O520       Ni522   1.907       .  S
O520        C523   1.276       .  A
Ni521      Ni522   2.391       .  S
C524        C855   1.449       .  S
O527       Ni533   1.918       .  S
O527        C548   1.267       .  A
O528       Ni551   1.886       .  S
O528        C537   1.262       .  A
O529       Ni533   1.924       .  S
O529       Ni551   1.903   1_545  S
O529       Ni545   1.907       .  S
O529        H552   0.967       .  S
C530        O547   1.258       .  A
C530        O539   1.268       .  A
C530       C1230   1.440       .  S
O531       Ni550   1.896       .  S
O531        C537   1.264       .  A
O532       Ni550   1.888   1_545  S
O532        C534   1.260       .  A
Ni533       O536   1.943   1_545  S
Ni533       O538   1.871   1_545  S
C534        O544   1.281       .  A
C534        C911   1.468       .  S
O535       Ni551   1.868       .  S
O535        C541   1.251       .  A
O536        C541   1.274       .  A
O538        C540   1.254       .  A
O539       Ni550   1.918   1_545  S
C540        O546   1.290       .  A
C541        C816   1.443       .  S
H542        O543   0.968       .  S
O543       Ni551   1.903       .  S
O543       Ni545   1.904   1_565  S
O543       Ni550   1.912       .  S
O544       Ni545   1.978       .  S
Ni545       O549   1.859       .  S
Ni545       O547   1.882       .  S
O546       Ni551   2.001       .  S
C548        O549   1.256       .  A
C548       C1375   1.461       .  S
O553       Ni559   1.909   1_556  S
O553        C574   1.267       .  A
O554       Ni577   1.894       .  S
O554        C563   1.264       .  A
O555       Ni559   1.911       .  S
O555       Ni577   1.916       .  S
O555       Ni571   1.890   1_554  S
O555        H578   0.966       .  S
C556        O573   1.246       .  A
C556        O565   1.278       .  A
C556        C640   1.448       .  S
O557       Ni576   1.930   1_554  S
O557        C563   1.273       .  A
O558       Ni576   1.857   1_554  S
O558        C560   1.249       .  A
Ni559       O562   1.925       .  S
Ni559       O564   1.865   1_554  S
C560        O570   1.293       .  A
C560        C774   1.472       .  S
O561       Ni577   1.862       .  S
O561        C567   1.247       .  A
O562        C567   1.271       .  A
C563       C1202   1.481       .  S
O564        C566   1.255       .  A
O565       Ni576   1.953       .  S
C566        O572   1.288       .  A
C567       C1374   1.434       .  S
H568        O569   0.966       .  S
O569       Ni577   1.892   1_556  S
O569       Ni571   1.917       .  S
O569       Ni576   1.906       .  S
O570       Ni571   2.021   1_554  S
Ni571       O575   1.901       .  S
Ni571       O573   1.862       .  S
O572       Ni577   1.999   1_556  S
C574        O575   1.268       .  A
C574        C990   1.474       .  S
C579        C653   1.508       .  S
C579        C580   1.414       .  A
C579        C584   1.418       .  A
C580        C581   1.415       .  A
C580        H585   1.083       .  S
C581        C698   1.490       .  S
C581        C582   1.400       .  A
C582        C583   1.402       .  A
C582        H586   1.083       .  S
C583        C683   1.493       .  S
C583        C584   1.416       .  A
C584        H587   1.083       .  S
C588        C641   1.484       .  S
C588        C589   1.398       .  A
C588        C593   1.416       .  A
C589        C590   1.396       .  A
C589        H594   1.083       .  S
C590        C670   1.484   1_556  S
C590        C591   1.415       .  A
C591        C592   1.415       .  A
C591        H595   1.083       .  S
C592        C681   1.505       .  S
C592        C593   1.413       .  A
C593        H596   1.083       .  S
C597        C625   1.505       .  S
C597        C598   1.419       .  A
C597        C602   1.411       .  A
C598        C599   1.416       .  A
C598        H603   1.083       .  S
C599        C655   1.486       .  S
C599        C600   1.397       .  A
C600        C601   1.391       .  A
C600        H604   1.083       .  S
C601        C639   1.480       .  S
C601        C602   1.414       .  A
C602        H605   1.083       .  S
C606        C667   1.514   1_556  S
C606        C607   1.416       .  A
C606        C611   1.420       .  A
C607        C608   1.417       .  A
C607        H612   1.083       .  S
C608        C695   1.488       .  S
C608        C609   1.396       .  A
C609        C610   1.396       .  A
C609        H613   1.083       .  S
C610        C627   1.491       .  S
C610        C611   1.419       .  A
C611        H614   1.083       .  S
O615       Ni623   1.946       .  S
O615        C625   1.289       .  A
O616       Ni623   1.932       .  S
O616        C626   1.286       .  A
O617       Ni623   1.912       .  S
O617        C627   1.276       .  A
O618       Ni623   1.899       .  S
O618        C628   1.278       .  A
O619       Ni624   1.921       .  S
O619        C628   1.281       .  A
O620       Ni624   1.934       .  S
O620        C627   1.290       .  A
O621       Ni624   1.924       .  S
O621        C626   1.279       .  A
O622       Ni624   1.928       .  S
O622        C625   1.282       .  A
Ni623      Ni624   2.386       .  S
O629       Ni637   1.934       .  S
O629        C639   1.290       .  A
O630       Ni637   1.926       .  S
O630        C640   1.286       .  A
O631       Ni637   1.909       .  S
O631        C641   1.277       .  A
O632       Ni637   1.892       .  S
O632        C642   1.272       .  A
O633       Ni638   1.907       .  S
O633        C642   1.286       .  A
O634       Ni638   1.926       .  S
O634        C641   1.288       .  A
O635       Ni638   1.870       .  S
O635        C640   1.270       .  A
O636       Ni638   1.892       .  S
O636        C639   1.272       .  A
Ni637      Ni638   2.393       .  S
C642        C829   1.450       .  S
O643       Ni651   1.935       .  S
O643        C653   1.284       .  A
O644       Ni651   1.922       .  S
O644        C654   1.279       .  A
O645       Ni651   1.919       .  S
O645        C655   1.286       .  A
O646       Ni651   1.910       .  S
O646        C656   1.280       .  A
O647       Ni652   1.910       .  S
O647        C656   1.279       .  A
O648       Ni652   1.917       .  S
O648        C655   1.278       .  A
O649       Ni652   1.938       .  S
O649        C654   1.287       .  A
O650       Ni652   1.945       .  S
O650        C653   1.288       .  A
Ni651      Ni652   2.386       .  S
O657       Ni665   1.950       .  S
O657        C667   1.289       .  A
O658       Ni665   1.934       .  S
O658        C668   1.288       .  A
O659       Ni665   1.885       .  S
O659        C669   1.275       .  A
O660       Ni665   1.901       .  S
O660        C670   1.275       .  A
O661       Ni666   1.932       .  S
O661        C670   1.289       .  A
O662       Ni666   1.917       .  S
O662        C669   1.281       .  A
O663       Ni666   1.937       .  S
O663        C668   1.281       .  A
O664       Ni666   1.941       .  S
O664        C667   1.285       .  A
Ni665      Ni666   2.386       .  S
O671       Ni679   1.944       .  S
O671        C681   1.288       .  A
O672       Ni679   1.925       .  S
O672        C682   1.285       .  A
O673       Ni679   1.924       .  S
O673        C683   1.280       .  A
O674       Ni679   1.921       .  S
O674        C684   1.280       .  A
O675       Ni680   1.910       .  S
O675        C684   1.282       .  A
O676       Ni680   1.927       .  S
O676        C683   1.287       .  A
O677       Ni680   1.910       .  S
O677        C682   1.276       .  A
O678       Ni680   1.929       .  S
O678        C681   1.283       .  A
Ni679      Ni680   2.387       .  S
O685       Ni693   1.929       .  S
O685        C695   1.289       .  A
O686       Ni693   1.919       .  S
O686        C696   1.286       .  A
O687       Ni693   1.899       .  S
O687        C697   1.273       .  A
O688       Ni693   1.915       .  S
O688        C698   1.278       .  A
O689       Ni694   1.929       .  S
O689        C698   1.287       .  A
O690       Ni694   1.912       .  S
O690        C697   1.286       .  A
O691       Ni694   1.895       .  S
O691        C696   1.274       .  A
O692       Ni694   1.911       .  S
O692        C695   1.276       .  A
Ni693      Ni694   2.391       .  S
C696       C1252   1.460       .  S
C699        C718   1.513       .  S
C699        C700   1.421       .  A
C699        C704   1.415       .  A
C700        C701   1.414       .  A
C700        H705   1.083       .  S
C701        C818   1.501       .  S
C701        C702   1.403       .  A
C702        C703   1.405       .  A
C702        H706   1.083       .  S
C703        C801   1.495       .  S
C703        C704   1.420       .  A
C704        H707   1.083       .  S
O708       Ni716   1.964       .  S
O708        C718   1.292       .  A
O709       Ni716   1.955       .  S
O709        C719   1.291       .  A
O710       Ni716   1.928       .  S
O710        C720   1.281       .  A
O711       Ni716   1.933       .  S
O711        C721   1.280       .  A
O712       Ni717   1.951       .  S
O712        C721   1.290       .  A
O713       Ni717   1.955       .  S
O713        C720   1.292       .  A
O714       Ni717   1.904       .  S
O714        C719   1.273       .  A
O715       Ni717   1.920       .  S
O715        C718   1.280       .  A
Ni716      Ni717   2.381       .  S
C720        C740   1.510       .  S
C722        C803   1.501       .  S
C722        C723   1.420       .  A
C722        C727   1.403       .  A
C723        C724   1.418   1_554  A
C723        H728   1.083       .  S
C724        C787   1.502       .  S
C724        C725   1.412   1_556  A
C725        C726   1.405       .  A
C725        H729   1.083   1_554  S
C726        C775   1.489       .  S
C726        C727   1.407       .  A
C727        H730   1.083       .  S
C731        C762   1.491       .  S
C731        C732   1.418       .  A
C731        C736   1.404       .  A
C732        C733   1.415   1_554  A
C732        H737   1.083       .  S
C733        C789   1.503       .  S
C733        C734   1.413   1_556  A
C734        C735   1.410       .  A
C734        H738   1.083       .  S
C735        C815   1.489       .  S
C735        C736   1.399       .  A
C736        H739   1.083       .  S
C740        C741   1.424       .  A
C740        C745   1.409       .  A
C741        C742   1.421       .  A
C741        H746   1.083       .  S
C742        C773   1.506       .  S
C742        C743   1.409       .  A
C743        C744   1.405       .  A
C743        H747   1.083       .  S
C744        C759   1.493       .  S
C744        C745   1.413       .  A
C745        H748   1.083       .  S
O749       Ni757   1.915       .  S
O749        C759   1.280       .  A
O750       Ni757   1.897       .  S
O750        C760   1.274       .  A
O751       Ni757   1.913       .  S
O751        C761   1.285       .  A
O752       Ni757   1.924       .  S
O752        C762   1.286       .  A
O753       Ni758   1.923       .  S
O753        C762   1.280       .  A
O754       Ni758   1.906       .  S
O754        C761   1.276       .  A
O755       Ni758   1.917       .  S
O755        C760   1.286       .  A
O756       Ni758   1.935       .  S
O756        C759   1.287       .  A
Ni757      Ni758   2.389       .  S
O763       Ni771   1.937       .  S
O763        C773   1.284       .  A
O764       Ni771   1.919       .  S
O764        C774   1.288       .  A
O765       Ni771   1.907       .  S
O765        C775   1.279       .  A
O766       Ni771   1.896       .  S
O766        C776   1.274       .  A
O767       Ni772   1.914       .  S
O767        C776   1.283       .  A
O768       Ni772   1.935       .  S
O768        C775   1.286       .  A
O769       Ni772   1.930       .  S
O769        C774   1.278       .  A
O770       Ni772   1.937       .  S
O770        C773   1.287       .  A
Ni771      Ni772   2.387       .  S
O777       Ni785   1.943       .  S
O777        C787   1.286       .  A
O778       Ni785   1.927       .  S
O778        C788   1.286       .  A
O779       Ni785   1.924       .  S
O779        C789   1.283       .  A
O780       Ni785   1.923       .  S
O780        C790   1.278       .  A
O781       Ni786   1.926       .  S
O781        C790   1.285       .  A
O782       Ni786   1.943       .  S
O782        C789   1.287       .  A
O783       Ni786   1.932       .  S
O783        C788   1.280       .  A
O784       Ni786   1.925       .  S
O784        C787   1.284       .  A
Ni785      Ni786   2.383       .  S
C790        C826   1.469       .  S
O791       Ni799   1.936       .  S
O791        C801   1.289       .  A
O792       Ni799   1.923       .  S
O792        C802   1.287       .  A
O793       Ni799   1.924       .  S
O793        C803   1.279       .  A
O794       Ni799   1.903       .  S
O794        C804   1.275       .  A
O795       Ni800   1.927       .  S
O795        C804   1.288       .  A
O796       Ni800   1.941       .  S
O796        C803   1.290       .  A
O797       Ni800   1.901       .  S
O797        C802   1.275       .  A
O798       Ni800   1.920       .  S
O798        C801   1.279       .  A
Ni799      Ni800   2.387       .  S
O805       Ni813   1.931       .  S
O805        C815   1.286       .  A
O806       Ni813   1.909       .  S
O806        C816   1.281       .  A
O807       Ni813   1.924       .  S
O807        C817   1.281       .  A
O808       Ni813   1.933       .  S
O808        C818   1.283       .  A
O809       Ni814   1.932       .  S
O809        C818   1.287       .  A
O810       Ni814   1.917       .  S
O810        C817   1.285       .  A
O811       Ni814   1.882       .  S
O811        C816   1.274       .  A
O812       Ni814   1.911       .  S
O812        C815   1.279       .  A
Ni813      Ni814   2.389       .  S
O819       Ni825   1.912       .  S
O819        C840   1.267       .  A
O820       Ni843   1.866       .  S
O820        C829   1.260       .  A
O821       Ni825   1.920       .  S
O821       Ni843   1.902       .  S
O821       Ni837   1.918       .  S
O821        H844   0.967       .  S
C822        O839   1.260       .  A
C822        O831   1.268       .  A
O823       Ni842   1.895       .  S
O823        C829   1.260       .  A
O824       Ni842   1.878       .  S
O824        C826   1.259       .  A
Ni825       O828   1.941       .  S
Ni825       O830   1.876       .  S
C826        O836   1.286       .  A
O827       Ni843   1.887       .  S
O827        C833   1.259       .  A
O828        C833   1.272       .  A
O830        C832   1.256       .  A
O831       Ni842   1.913       .  S
C832        O838   1.284       .  A
C832       C1186   1.457       .  S
C833        C946   1.457       .  S
H834        O835   0.967       .  S
O835       Ni843   1.910       .  S
O835       Ni837   1.903       .  S
O835       Ni842   1.921       .  S
O836       Ni837   1.982       .  S
Ni837       O841   1.875       .  S
Ni837       O839   1.894       .  S
O838       Ni843   1.982       .  S
C840        O841   1.262       .  A
C840       C1081   1.461       .  S
O845       Ni851   1.925   1_655  S
O845        C866   1.268       .  A
O846       Ni869   1.853       .  S
O846        C855   1.251       .  A
O847       Ni851   1.931       .  S
O847       Ni869   1.888   1_545  S
O847       Ni863   1.902   1_455  S
O847        H870   0.967       .  S
C848        O865   1.251       .  A
C848        O857   1.274       .  A
C848       C1228   1.440       .  S
O849       Ni868   1.918   1_455  S
O849        C855   1.269       .  A
O850       Ni868   1.897   1_445  S
O850        C852   1.262       .  A
Ni851       O854   1.945   1_545  S
Ni851       O856   1.899   1_455  S
C852        O862   1.284       .  A
C852       C1309   1.476       .  S
O853       Ni869   1.875       .  S
O853        C859   1.256       .  A
O854        C859   1.276       .  A
O856        C858   1.262   1_545  A
O857       Ni868   1.941   1_545  S
C858        O864   1.281       .  A
C859       C1096   1.449       .  S
H860        O861   0.966       .  S
O861       Ni869   1.905   1_655  S
O861       Ni863   1.885   1_565  S
O861       Ni868   1.926       .  S
O862       Ni863   1.980   1_455  S
Ni863       O867   1.848       .  S
Ni863       O865   1.868       .  S
O864       Ni869   1.970   1_655  S
C866        O867   1.250       .  A
C866        C974   1.456       .  S
C871        C922   1.505       .  S
C871        C872   1.422       .  A
C871        C876   1.404       .  A
C872        C873   1.422       .  A
C872        H877   1.083       .  S
C873        C989   1.506       .  S
C873        C874   1.406       .  A
C874        C875   1.407       .  A
C874        H878   1.083       .  S
C875        C959   1.485   1_545  S
C875        C876   1.408       .  A
C876        H879   1.083       .  S
C880        C908   1.503       .  S
C880        C881   1.419       .  A
C880        C885   1.414       .  A
C881        C882   1.416       .  A
C881        H886   1.083       .  S
C882        C975   1.501       .  S
C882        C883   1.410       .  A
C883        C884   1.404       .  A
C883        H887   1.083       .  S
C884        C961   1.498   1_545  S
C884        C885   1.409       .  A
C885        H888   1.083       .  S
C889        C910   1.499       .  S
C889        C890   1.413       .  A
C889        C894   1.414       .  A
C890        C891   1.409       .  A
C890        H895   1.083       .  S
C891        C945   1.481       .  S
C891        C892   1.400       .  A
C892        C893   1.394       .  A
C892        H896   1.083       .  S
C893        C924   1.487       .  S
C893        C894   1.416       .  A
C894        H897   1.083       .  S
O898       Ni906   1.939       .  S
O898        C908   1.285       .  A
O899       Ni906   1.930       .  S
O899        C909   1.286       .  A
O900       Ni906   1.928       .  S
O900        C910   1.284       .  A
O901       Ni906   1.927       .  S
O901        C911   1.280       .  A
O902       Ni907   1.917       .  S
O902        C911   1.282       .  A
O903       Ni907   1.934       .  S
O903        C910   1.285       .  A
O904       Ni907   1.937       .  S
O904        C909   1.281       .  A
O905       Ni907   1.930       .  S
O905        C908   1.285       .  A
Ni906      Ni907   2.383       .  S
O912       Ni920   1.950       .  S
O912        C922   1.292       .  A
O913       Ni920   1.932       .  S
O913        C923   1.290       .  A
O914       Ni920   1.902       .  S
O914        C924   1.274       .  A
O915       Ni920   1.900       .  S
O915        C925   1.273       .  A
O916       Ni921   1.922       .  S
O916        C925   1.287       .  A
O917       Ni921   1.938       .  S
O917        C924   1.291       .  A
O918       Ni921   1.898       .  S
O918        C923   1.271       .  A
O919       Ni921   1.921       .  S
O919        C922   1.279       .  A
Ni920      Ni921   2.388       .  S
C926        C947   1.462       .  S
C926        C927   1.392       .  A
C926        C931   1.397       .  A
C927        C928   1.395       .  A
C927        H932   1.083       .  S
C928        C973   1.492       .  S
C928        C929   1.420       .  A
C929        C930   1.426       .  A
C929        H933   1.083       .  S
C930        C987   1.492       .  S
C930        C931   1.399       .  A
C931        H934   1.083       .  S
O935       Ni943   1.920       .  S
O935        C945   1.281       .  A
O936       Ni943   1.911       .  S
O936        C946   1.283       .  A
O937       Ni943   1.899       .  S
O937        C947   1.281       .  A
O938       Ni943   1.880       .  S
O938        C948   1.272       .  A
O939       Ni944   1.870       .  S
O939        C948   1.275       .  A
O940       Ni944   1.891       .  S
O940        C947   1.276       .  A
O941       Ni944   1.906       .  S
O941        C946   1.278       .  A
O942       Ni944   1.908       .  S
O942        C945   1.282       .  A
Ni943      Ni944   2.396       .  S
O949       Ni957   1.923       .  S
O949        C959   1.283       .  A
O950       Ni957   1.918       .  S
O950        C960   1.281       .  A
O951       Ni957   1.932       .  S
O951        C961   1.286       .  A
O952       Ni957   1.910       .  S
O952        C962   1.279       .  A
O953       Ni958   1.902       .  S
O953        C962   1.280       .  A
O954       Ni958   1.926       .  S
O954        C961   1.282       .  A
O955       Ni958   1.897       .  S
O955        C960   1.280       .  A
O956       Ni958   1.913       .  S
O956        C959   1.281       .  A
Ni957      Ni958   2.390       .  S
O963       Ni971   1.922       .  S
O963        C973   1.288       .  A
O964       Ni971   1.909       .  S
O964        C974   1.278       .  A
O965       Ni971   1.947       .  S
O965        C975   1.286       .  A
O966       Ni971   1.931       .  S
O966        C976   1.282       .  A
O967       Ni972   1.897       .  S
O967        C976   1.282       .  A
O968       Ni972   1.916       .  S
O968        C975   1.283       .  A
O969       Ni972   1.895       .  S
O969        C974   1.280       .  A
O970       Ni972   1.923       .  S
O970        C973   1.278       .  A
Ni971      Ni972   2.389       .  S
C976       C1241   1.469       .  S
O977       Ni985   1.909       .  S
O977        C987   1.274       .  A
O978       Ni985   1.888       .  S
O978        C988   1.274       .  A
O979       Ni985   1.947       .  S
O979        C989   1.290       .  A
O980       Ni985   1.928       .  S
O980        C990   1.289       .  A
O981       Ni986   1.914       .  S
O981        C990   1.275       .  A
O982       Ni986   1.928       .  S
O982        C989   1.281       .  A
O983       Ni986   1.936       .  S
O983        C988   1.287       .  A
O984       Ni986   1.942       .  S
O984        C987   1.292       .  A
Ni985      Ni986   2.386       .  S
C991       C1093   1.501       .  S
C991        C992   1.417       .  A
C991        C996   1.413       .  A
C992        C993   1.416       .  A
C992        H997   1.083       .  S
C993       C1082   1.491   1_455  S
C993        C994   1.402       .  A
C994        C995   1.398       .  A
C994        H998   1.083       .  S
C995       C1012   1.487       .  S
C995        C996   1.410       .  A
C996        H999   1.083       .  S
O1000     Ni1008   1.930       .  S
O1000      C1010   1.285       .  A
O1001     Ni1008   1.914       .  S
O1001      C1011   1.282       .  A
O1002     Ni1008   1.912       .  S
O1002      C1012   1.279       .  A
O1003     Ni1008   1.891       .  S
O1003      C1013   1.278       .  A
O1004     Ni1009   1.910       .  S
O1004      C1013   1.279       .  A
O1005     Ni1009   1.927       .  S
O1005      C1012   1.286       .  A
O1006     Ni1009   1.904       .  S
O1006      C1011   1.279       .  A
O1007     Ni1009   1.919       .  S
O1007      C1010   1.281       .  A
Ni1008    Ni1009   2.391       .  S
C1010      C1025   1.492       .  S
C1014      C1095   1.481       .  S
C1014      C1015   1.400       .  A
C1014      C1019   1.403       .  A
C1015      C1016   1.399       .  A
C1015      H1020   1.083       .  S
C1016      C1107   1.468       .  S
C1016      C1017   1.401       .  A
C1017      C1018   1.399       .  A
C1017      H1021   1.083       .  S
C1018      C1042   1.477       .  S
C1018      C1019   1.414       .  A
C1019      H1022   1.083       .  S
C1023      C1045   1.500       .  S
C1023      C1024   1.405       .  A
C1023      C1028   1.426       .  A
C1024      C1025   1.403       .  A
C1024      H1029   1.083       .  S
C1025      C1026   1.409       .  A
C1026      C1027   1.413       .  A
C1026      H1030   1.083       .  S
C1027      C1065   1.512       .  S
C1027      C1028   1.419       .  A
C1028      H1031   1.083       .  S
O1032     Ni1040   1.934       .  S
O1032      C1042   1.288       .  A
O1033     Ni1040   1.929       .  S
O1033      C1043   1.290       .  A
O1034     Ni1040   1.898       .  S
O1034      C1044   1.272       .  A
O1035     Ni1040   1.919       .  S
O1035      C1045   1.278       .  A
O1036     Ni1041   1.944       .  S
O1036      C1045   1.291       .  A
O1037     Ni1041   1.935       .  S
O1037      C1044   1.290       .  A
O1038     Ni1041   1.883       .  S
O1038      C1043   1.269       .  A
O1039     Ni1041   1.890       .  S
O1039      C1042   1.273       .  A
Ni1040    Ni1041   2.387       .  S
C1046      C1067   1.498       .  S
C1046      C1047   1.404       .  A
C1046      C1051   1.416       .  A
C1047      C1048   1.398       .  A
C1047      H1052   1.083       .  S
C1048      C1109   1.474       .  S
C1048      C1049   1.397       .  A
C1049      C1050   1.402   1_455  A
C1049      H1053   1.083       .  S
C1050      C1079   1.489       .  S
C1050      C1051   1.424   1_655  A
C1051      H1054   1.083   1_455  S
O1055     Ni1063   1.927       .  S
O1055      C1065   1.284       .  A
O1056     Ni1063   1.909       .  S
O1056      C1066   1.276       .  A
O1057     Ni1063   1.944       .  S
O1057      C1067   1.285       .  A
O1058     Ni1063   1.924       .  S
O1058      C1068   1.287       .  A
O1059     Ni1064   1.918       .  S
O1059      C1068   1.276       .  A
O1060     Ni1064   1.913       .  S
O1060      C1067   1.283       .  A
O1061     Ni1064   1.937       .  S
O1061      C1066   1.287       .  A
O1062     Ni1064   1.955       .  S
O1062      C1065   1.288       .  A
Ni1063    Ni1064   2.385       .  S
C1066      C1244   1.461       .  S
O1069     Ni1077   1.934       .  S
O1069      C1079   1.290       .  A
O1070     Ni1077   1.923       .  S
O1070      C1080   1.282       .  A
O1071     Ni1077   1.914       .  S
O1071      C1081   1.278       .  A
O1072     Ni1077   1.926       .  S
O1072      C1082   1.281       .  A
O1073     Ni1078   1.920       .  S
O1073      C1082   1.286       .  A
O1074     Ni1078   1.908       .  S
O1074      C1081   1.283       .  A
O1075     Ni1078   1.878       .  S
O1075      C1080   1.273       .  A
O1076     Ni1078   1.907       .  S
O1076      C1079   1.275       .  A
Ni1077    Ni1078   2.390       .  S
O1083     Ni1091   1.932       .  S
O1083      C1093   1.286       .  A
O1084     Ni1091   1.927       .  S
O1084      C1094   1.280       .  A
O1085     Ni1091   1.926       .  S
O1085      C1095   1.283       .  A
O1086     Ni1091   1.911       .  S
O1086      C1096   1.281       .  A
O1087     Ni1092   1.898       .  S
O1087      C1096   1.276       .  A
O1088     Ni1092   1.902       .  S
O1088      C1095   1.280       .  A
O1089     Ni1092   1.910       .  S
O1089      C1094   1.281       .  A
O1090     Ni1092   1.934       .  S
O1090      C1093   1.284       .  A
Ni1091    Ni1092   2.388       .  S
O1097     Ni1105   1.903       .  S
O1097      C1107   1.279       .  A
O1098     Ni1105   1.887       .  S
O1098      C1108   1.277       .  A
O1099     Ni1105   1.902       .  S
O1099      C1109   1.280       .  A
O1100     Ni1105   1.889       .  S
O1100      C1110   1.277       .  A
O1101     Ni1106   1.892       .  S
O1101      C1110   1.277       .  A
O1102     Ni1106   1.912       .  S
O1102      C1109   1.281       .  A
O1103     Ni1106   1.892       .  S
O1103      C1108   1.277       .  A
O1104     Ni1106   1.902       .  S
O1104      C1107   1.280       .  A
Ni1105    Ni1106   2.396       .  S
C1111      C1130   1.475       .  S
C1111      C1112   1.399       .  A
C1111      C1116   1.407       .  A
C1112      C1113   1.407       .  A
C1112      H1117   1.083       .  S
C1113      C1199   1.470       .  S
C1113      C1114   1.400       .  A
C1114      C1115   1.399       .  A
C1114      H1118   1.083       .  S
C1115      C1227   1.473       .  S
C1115      C1116   1.397       .  A
C1116      H1119   1.083       .  S
O1120     Ni1128   1.929       .  S
O1120      C1130   1.285       .  A
O1121     Ni1128   1.915       .  S
O1121      C1131   1.289       .  A
O1122     Ni1128   1.918       .  S
O1122      C1132   1.279       .  A
O1123     Ni1128   1.909       .  S
O1123      C1133   1.273       .  A
O1124     Ni1129   1.928       .  S
O1124      C1133   1.290       .  A
O1125     Ni1129   1.943       .  S
O1125      C1132   1.290       .  A
O1126     Ni1129   1.881       .  S
O1126      C1131   1.268       .  A
O1127     Ni1129   1.887       .  S
O1127      C1130   1.275       .  A
Ni1128    Ni1129   2.390       .  S
C1132      C1136   1.498       .  S
C1134      C1187   1.494       .  S
C1134      C1135   1.407       .  A
C1134      C1139   1.415       .  A
C1135      C1136   1.405       .  A
C1135      H1140   1.083       .  S
C1136      C1137   1.419       .  A
C1137      C1138   1.415       .  A
C1137      H1141   1.083       .  S
C1138      C1213   1.509       .  S
C1138      C1139   1.414       .  A
C1139      H1142   1.083       .  S
C1143      C1216   1.487       .  S
C1143      C1144   1.407       .  A
C1143      C1148   1.409       .  A
C1144      C1145   1.405   1_655  A
C1144      H1149   1.083       .  S
C1145      C1171   1.496       .  S
C1145      C1146   1.419   1_455  A
C1146      C1147   1.413       .  A
C1146      H1150   1.083       .  S
C1147      C1201   1.502       .  S
C1147      C1148   1.407       .  A
C1148      H1151   1.083       .  S
C1152      C1185   1.499       .  S
C1152      C1153   1.414       .  A
C1152      C1157   1.411       .  A
C1153      C1154   1.414       .  A
C1153      H1158   1.083       .  S
C1154      C1174   1.485   1_655  S
C1154      C1155   1.396       .  A
C1155      C1156   1.398       .  A
C1155      H1159   1.083       .  S
C1156      C1229   1.480       .  S
C1156      C1157   1.410       .  A
C1157      H1160   1.083       .  S
O1161     Ni1169   1.945       .  S
O1161      C1171   1.290       .  A
O1162     Ni1169   1.929       .  S
O1162      C1172   1.288       .  A
O1163     Ni1169   1.907       .  S
O1163      C1173   1.274       .  A
O1164     Ni1169   1.909       .  S
O1164      C1174   1.276       .  A
O1165     Ni1170   1.926       .  S
O1165      C1174   1.288       .  A
O1166     Ni1170   1.906       .  S
O1166      C1173   1.284       .  A
O1167     Ni1170   1.893       .  S
O1167      C1172   1.271       .  A
O1168     Ni1170   1.909       .  S
O1168      C1171   1.277       .  A
Ni1169    Ni1170   2.390       .  S
O1175     Ni1183   1.931       .  S
O1175      C1185   1.285       .  A
O1176     Ni1183   1.923       .  S
O1176      C1186   1.281       .  A
O1177     Ni1183   1.933       .  S
O1177      C1187   1.286       .  A
O1178     Ni1183   1.916       .  S
O1178      C1188   1.279       .  A
O1179     Ni1184   1.907       .  S
O1179      C1188   1.279       .  A
O1180     Ni1184   1.921       .  S
O1180      C1187   1.281       .  A
O1181     Ni1184   1.907       .  S
O1181      C1186   1.280       .  A
O1182     Ni1184   1.931       .  S
O1182      C1185   1.284       .  A
Ni1183    Ni1184   2.387       .  S
C1188      C1245   1.452       .  S
O1189     Ni1197   1.910       .  S
O1189      C1199   1.282       .  A
O1190     Ni1197   1.891       .  S
O1190      C1200   1.279       .  A
O1191     Ni1197   1.937       .  S
O1191      C1201   1.285       .  A
O1192     Ni1197   1.928       .  S
O1192      C1202   1.281       .  A
O1193     Ni1198   1.927       .  S
O1193      C1202   1.286       .  A
O1194     Ni1198   1.932       .  S
O1194      C1201   1.286       .  A
O1195     Ni1198   1.872       .  S
O1195      C1200   1.271       .  A
O1196     Ni1198   1.897       .  S
O1196      C1199   1.276       .  A
Ni1197    Ni1198   2.390       .  S
O1203     Ni1211   1.939       .  S
O1203      C1213   1.286       .  A
O1204     Ni1211   1.923       .  S
O1204      C1214   1.279       .  A
O1205     Ni1211   1.899       .  S
O1205      C1215   1.282       .  A
O1206     Ni1211   1.921       .  S
O1206      C1216   1.283       .  A
O1207     Ni1212   1.919       .  S
O1207      C1216   1.282       .  A
O1208     Ni1212   1.917       .  S
O1208      C1215   1.278       .  A
O1209     Ni1212   1.915       .  S
O1209      C1214   1.284       .  A
O1210     Ni1212   1.940       .  S
O1210      C1213   1.286       .  A
Ni1211    Ni1212   2.387       .  S
O1217     Ni1225   1.916       .  S
O1217      C1227   1.282       .  A
O1218     Ni1225   1.904       .  S
O1218      C1228   1.279       .  A
O1219     Ni1225   1.909       .  S
O1219      C1229   1.278       .  A
O1220     Ni1225   1.890       .  S
O1220      C1230   1.278       .  A
O1221     Ni1226   1.901       .  S
O1221      C1230   1.277       .  A
O1222     Ni1226   1.917       .  S
O1222      C1229   1.285       .  A
O1223     Ni1226   1.891       .  S
O1223      C1228   1.276       .  A
O1224     Ni1226   1.899       .  S
O1224      C1227   1.278       .  A
Ni1225    Ni1226   2.394       .  S
O1231     Ni1237   1.918   1_455  S
O1231      C1252   1.266       .  A
O1232     Ni1255   1.882       .  S
O1232      C1241   1.268       .  A
O1233     Ni1237   1.906       .  S
O1233     Ni1255   1.884       .  S
O1233     Ni1249   1.914   1_655  S
O1233      H1256   0.966       .  S
C1234      O1251   1.268       .  A
C1234      O1243   1.277       .  A
C1234      C1348   1.457       .  S
O1235     Ni1254   1.907   1_655  S
O1235      C1241   1.268       .  A
O1236     Ni1254   1.874   1_655  S
O1236      C1238   1.256       .  A
Ni1237     O1240   1.925       .  S
Ni1237     O1242   1.876   1_655  S
C1238      O1248   1.283       .  A
O1239     Ni1255   1.890       .  S
O1239      C1245   1.262       .  A
O1240      C1245   1.279       .  A
O1242      C1244   1.260       .  A
O1243     Ni1254   1.931       .  S
C1244      O1250   1.286       .  A
H1246      O1247   0.966       .  S
O1247     Ni1255   1.914   1_455  S
O1247     Ni1249   1.899       .  S
O1247     Ni1254   1.887       .  S
O1248     Ni1249   1.987   1_655  S
Ni1249     O1253   1.874       .  S
Ni1249     O1251   1.900       .  S
O1250     Ni1255   1.967   1_455  S
C1252      O1253   1.267       .  A
C1257      C1276   1.498       .  S
C1257      C1258   1.413       .  A
C1257      C1262   1.411       .  A
C1258      C1259   1.416       .  A
C1258      H1263   1.083       .  S
C1259      C1376   1.486   1_455  S
C1259      C1260   1.400       .  A
C1260      C1261   1.398       .  A
C1260      H1264   1.083       .  S
C1261      C1345   1.481   1_554  S
C1261      C1262   1.408       .  A
C1262      H1265   1.083       .  S
O1266     Ni1274   1.920       .  S
O1266      C1276   1.282       .  A
O1267     Ni1274   1.929       .  S
O1267      C1277   1.279       .  A
O1268     Ni1274   1.965       .  S
O1268      C1278   1.292       .  A
O1269     Ni1274   1.955       .  S
O1269      C1279   1.290       .  A
O1270     Ni1275   1.959       .  S
O1270      C1279   1.287       .  A
O1271     Ni1275   1.953       .  S
O1271      C1278   1.288       .  A
O1272     Ni1275   1.929       .  S
O1272      C1277   1.285       .  A
O1273     Ni1275   1.938       .  S
O1273      C1276   1.285       .  A
Ni1274    Ni1275   2.378       .  S
C1278      C1291   1.531       .  S
C1280      C1361   1.501   1_545  S
C1280      C1281   1.410       .  A
C1280      C1285   1.420       .  A
C1281      C1282   1.411   1_455  A
C1281      H1286   1.083       .  S
C1282      C1373   1.477       .  S
C1282      C1283   1.392   1_655  A
C1283      C1284   1.395       .  A
C1283      H1287   1.083       .  S
C1284      C1310   1.486       .  S
C1284      C1285   1.415       .  A
C1285      H1288   1.083       .  S
C1289      C1334   1.513       .  S
C1289      C1290   1.425       .  A
C1289      C1294   1.409       .  A
C1290      C1291   1.422       .  A
C1290      H1295   1.083       .  S
C1291      C1292   1.427       .  A
C1292      C1293   1.425       .  A
C1292      H1296   1.083       .  S
C1293      C1308   1.517       .  S
C1293      C1294   1.411       .  A
C1294      H1297   1.083       .  S
O1298     Ni1306   1.946       .  S
O1298      C1308   1.290       .  A
O1299     Ni1306   1.934       .  S
O1299      C1309   1.285       .  A
O1300     Ni1306   1.917       .  S
O1300      C1310   1.278       .  A
O1301     Ni1306   1.913       .  S
O1301      C1311   1.280       .  A
O1302     Ni1307   1.915       .  S
O1302      C1311   1.281       .  A
O1303     Ni1307   1.919       .  S
O1303      C1310   1.286       .  A
O1304     Ni1307   1.924       .  S
O1304      C1309   1.280       .  A
O1305     Ni1307   1.946       .  S
O1305      C1308   1.285       .  A
Ni1306    Ni1307   2.385       .  S
C1312      C1347   1.495   1_554  S
C1312      C1313   1.416       .  A
C1312      C1317   1.401       .  A
C1313      C1314   1.418       .  A
C1313      H1318   1.083       .  S
C1314      C1359   1.497   1_545  S
C1314      C1315   1.408       .  A
C1315      C1316   1.405       .  A
C1315      H1319   1.083       .  S
C1316      C1331   1.482       .  S
C1316      C1317   1.404       .  A
C1317      H1320   1.083       .  S
O1321     Ni1329   1.906       .  S
O1321      C1331   1.280       .  A
O1322     Ni1329   1.892       .  S
O1322      C1332   1.281       .  A
O1323     Ni1329   1.899       .  S
O1323      C1333   1.279       .  A
O1324     Ni1329   1.926       .  S
O1324      C1334   1.280       .  A
O1325     Ni1330   1.959       .  S
O1325      C1334   1.293       .  A
O1326     Ni1330   1.944       .  S
O1326      C1333   1.285       .  A
O1327     Ni1330   1.918       .  S
O1327      C1332   1.278       .  A
O1328     Ni1330   1.924       .  S
O1328      C1331   1.283       .  A
Ni1329    Ni1330   2.387       .  S
O1335     Ni1343   1.922       .  S
O1335      C1345   1.285       .  A
O1336     Ni1343   1.913       .  S
O1336      C1346   1.281       .  A
O1337     Ni1343   1.917       .  S
O1337      C1347   1.279       .  A
O1338     Ni1343   1.894       .  S
O1338      C1348   1.279       .  A
O1339     Ni1344   1.922       .  S
O1339      C1348   1.281       .  A
O1340     Ni1344   1.938       .  S
O1340      C1347   1.289       .  A
O1341     Ni1344   1.896       .  S
O1341      C1346   1.277       .  A
O1342     Ni1344   1.908       .  S
O1342      C1345   1.278       .  A
Ni1343    Ni1344   2.390       .  S
O1349     Ni1357   1.925       .  S
O1349      C1359   1.281       .  A
O1350     Ni1357   1.931       .  S
O1350      C1360   1.280       .  A
O1351     Ni1357   1.944       .  S
O1351      C1361   1.289       .  A
O1352     Ni1357   1.932       .  S
O1352      C1362   1.286       .  A
O1353     Ni1358   1.920       .  S
O1353      C1362   1.278       .  A
O1354     Ni1358   1.922       .  S
O1354      C1361   1.281       .  A
O1355     Ni1358   1.923       .  S
O1355      C1360   1.285       .  A
O1356     Ni1358   1.935       .  S
O1356      C1359   1.287       .  A
Ni1357    Ni1358   2.384       .  S
O1363     Ni1371   1.923       .  S
O1363      C1373   1.288       .  A
O1364     Ni1371   1.911       .  S
O1364      C1374   1.281       .  A
O1365     Ni1371   1.900       .  S
O1365      C1375   1.276       .  A
O1366     Ni1371   1.914       .  S
O1366      C1376   1.278       .  A
O1367     Ni1372   1.926       .  S
O1367      C1376   1.287       .  A
O1368     Ni1372   1.916       .  S
O1368      C1375   1.285       .  A
O1369     Ni1372   1.863       .  S
O1369      C1374   1.271       .  A
O1370     Ni1372   1.895       .  S
O1370      C1373   1.274       .  A
Ni1371    Ni1372   2.393       .  S
