geometry optimzed in LAMMPS
_audit_creation_date              2020-11-30 
_audit_creation_method            'lammps2cif' 
_symmetry_space_group_name_H-M    'P1' 
_symmetry_Int_Tables_number       1 
_symmetry_cell_setting            triclinic 
loop_ 
_symmetry_equiv_pos_as_xyz 
  x,y,z 
_cell_length_a                    51.02719639097023 
_cell_length_b                    51.141350155762844 
_cell_length_c                    51.57403707123418 
_cell_angle_alpha                 89.78864458984948 
_cell_angle_beta                  89.87837540118299 
_cell_angle_gamma                 89.60122621211065 
loop_ 
_atom_site_label 
_atom_site_type_symbol 
_atom_site_fract_x 
_atom_site_fract_y 
_atom_site_fract_z 
_atom_site_charge 
O1          O  0.48435495  0.51785815  0.56007118    -0.80000
O2          O  0.52279595  0.45061591  0.46842872    -0.64690
O3          O  0.51629273  0.50617382  0.51702024    -1.11290
C4          C  0.44960955  0.53614167  0.46163923     1.06890
O5          O  0.52157908  0.47905503  0.43558302    -0.77890
O6          O  0.51532645  0.52921755  0.44386677    -0.65480
Ni7        Ni  0.51755989  0.50128473  0.55303127     1.34870
C8          C  0.52037292  0.54589428  0.46114987     0.85630
O9          O  0.54505287  0.45856903  0.51445091    -0.78430
O10         O  0.55084121  0.48510473  0.54795811    -0.88710
C11         C  0.52976186  0.45791000  0.44574877     0.85200
O12         O  0.50018679  0.46816008  0.55402816    -0.66910
O13         O  0.46218517  0.52408882  0.44389750    -0.86200
C14         C  0.48946855  0.45357968  0.53721022     0.86030
C15         C  0.55477403  0.46344955  0.53662889     1.07600
H16         H  0.47499666  0.48331188  0.47926764     0.39400
O17         O  0.49038789  0.49403657  0.47729887    -1.08860
O18         O  0.50940196  0.54632561  0.48347153    -0.65510
Ni19       Ni  0.48648513  0.52176659  0.50159391     1.26350
O20         O  0.49301238  0.45611611  0.51283036    -0.65740
O21         O  0.45632486  0.53600619  0.48530966    -0.78030
C22         C  0.47563968  0.53940655  0.55111261     0.85410
O23         O  0.48201650  0.54716769  0.52851000    -0.65210
Ni24       Ni  0.49180195  0.50113193  0.44141018     1.27450
Ni25       Ni  0.51879621  0.47684561  0.49453906     1.26060
H26         H  0.53125286  0.51696651  0.51307409     0.39960
O27         O  0.48497516  0.22334533  0.19339926    -0.80000
O28         O  0.52372080  0.31361014  0.26003819    -0.64690
O29         O  0.51939681  0.24626870  0.22844277    -1.11290
C30         C  0.46709084  0.22207361  0.29786139     1.06890
O31         O  0.52663407  0.29644250  0.29946145    -0.77890
O32         O  0.53426539  0.24556206  0.29673774    -0.65480
Ni33       Ni  0.51689363  0.24262299  0.19206169     1.34870
C34         C  0.53417675  0.22217366  0.28893989     0.85630
O35         O  0.54567998  0.29328476  0.21746529    -0.78430
O36         O  0.54879243  0.26135315  0.18788190    -0.88710
C37         C  0.53066061  0.31510681  0.28368709     0.85200
O38         O  0.49665777  0.27364562  0.18471731    -0.66910
O39         O  0.48253211  0.23695274  0.31023835    -0.86200
C40         C  0.48666917  0.29159790  0.19869771     0.86030
C41         C  0.55529568  0.28357357  0.19666590     1.07600
H42         H  0.47926365  0.27612179  0.26494629     0.39400
O43         O  0.49565591  0.26672071  0.26678877    -1.08860
O44         O  0.51816026  0.21437976  0.27155309    -0.65510
Ni45       Ni  0.49222794  0.23340338  0.25031001     1.26350
O46         O  0.49246137  0.29471721  0.22249535    -0.65740
O47         O  0.46549755  0.22180320  0.27329056    -0.78030
C48         C  0.47774124  0.20453763  0.20781255     0.85410
O49         O  0.48690176  0.20206003  0.23063698    -0.65210
Ni50       Ni  0.50434372  0.26671386  0.30240220     1.27450
Ni51       Ni  0.52103352  0.28042033  0.24283428     1.26060
H52         H  0.53551683  0.23749269  0.23320010     0.39960
C53         C  0.80493884  0.78718264  0.79749113     0.04020
C54         C  0.81485977  0.79710378  0.77379895    -0.12130
C55         C  0.80309446  0.81887602  0.76143216     0.01520
C56         C  0.78008297  0.82952544  0.77223933    -0.10650
C57         C  0.77044373  0.82096096  0.79623842     0.04020
C58         C  0.78309619  0.79992055  0.80882337    -0.10070
H59         H  0.83209744  0.78820585  0.76524408     0.09610
H60         H  0.77030924  0.84568480  0.76254327     0.07140
H61         H  0.77592391  0.79352882  0.82756659     0.06990
C62         C  0.76957310  0.97292970  0.94936390     0.04020
C63         C  0.77694407  0.95811406  0.97126269    -0.12130
C64         C  0.79805903  0.96577055  0.98688769     0.01520
C65         C  0.81139839  0.98890527  0.98089824    -0.10650
C66         C  0.80560709  0.00332330  0.95834241     0.04020
C67         C  0.78450467  0.99509368  0.94269262    -0.10070
H68         H  0.76638776  0.94041350  0.97601829     0.09610
H69         H  0.82702328  0.99519478  0.99355140     0.07140
H70         H  0.77965353  0.00590904  0.92524964     0.06990
C71         C  0.99504425  0.80711724  0.95225712     0.04020
C72         C  0.98534802  0.81747909  0.97572229    -0.12130
C73         C  0.96069546  0.80966573  0.98541902     0.01520
C74         C  0.94680252  0.79062679  0.97167746    -0.10650
C75         C  0.95737182  0.77866246  0.94974331     0.04020
C76         C  0.98130292  0.78722598  0.93975576    -0.10070
H77         H  0.99674274  0.83199829  0.98580717     0.09610
H78         H  0.92744038  0.78485457  0.97806694     0.07140
H79         H  0.98882935  0.77895891  0.92188083     0.06990
C80         C  0.95848425  0.96625568  0.76796886     0.04020
C81         C  0.95039965  0.99002247  0.77951673    -0.12130
C82         C  0.96019698  0.99751892  0.80380071     0.01520
C83         C  0.97995740  0.98258636  0.81549958    -0.10650
C84         C  0.98991919  0.96011733  0.80350584     0.04020
C85         C  0.97844296  0.95159127  0.78029282    -0.10070
H86         H  0.93572154  0.00222968  0.77026021     0.09610
H87         H  0.98744616  0.98841316  0.83425397     0.07140
H88         H  0.98504819  0.93331979  0.77195585     0.06990
O89         O  0.08552721  0.88249363  0.83780800    -0.73530
O90         O  0.14135276  0.84172191  0.86645423    -0.73560
O91         O  0.08831694  0.84358857  0.87341534    -0.73620
O92         O  0.13881168  0.88073087  0.83166868    -0.73670
O93         O  0.14272733  0.91010684  0.86332224    -0.73600
O94         O  0.09303926  0.87318120  0.90472847    -0.73580
O95         O  0.14599522  0.87100443  0.89798423    -0.73550
O96         O  0.08976780  0.91183490  0.86935114    -0.73620
Ni97       Ni  0.11328725  0.86108173  0.85118798     1.25410
Ni98       Ni  0.11805092  0.89254929  0.88496035     1.25360
C99         C  0.07806303  0.90356911  0.84902568     0.88650
C100        C  0.15331967  0.84994650  0.88654626     0.88580
C101        C  0.08201958  0.85275825  0.89574794     0.88610
C102        C  0.14954638  0.90116822  0.84118861     0.88780
O103        O  0.83603530  0.88119650  0.07603249    -0.73530
O104        O  0.87254480  0.84008162  0.12684575    -0.73560
O105        O  0.83413534  0.87672719  0.12883970    -0.73620
O106        O  0.87497230  0.84509808  0.07429841    -0.73670
O107        O  0.90506102  0.87588970  0.07936779    -0.73600
O108        O  0.86337307  0.90841395  0.13132543    -0.73580
O109        O  0.90160340  0.87209268  0.13170008    -0.73550
O110        O  0.86627713  0.91230269  0.07921542    -0.73620
Ni111      Ni  0.85332116  0.85963449  0.10135425     1.25410
Ni112      Ni  0.88512804  0.89324892  0.10549681     1.25360
C113        C  0.84529065  0.90334177  0.06904451     0.88650
C114        C  0.89270679  0.84957909  0.13800591     0.88580
C115        C  0.84224246  0.89787885  0.13939510     0.88610
C116        C  0.89688873  0.85543429  0.06780051     0.88780
O117        O  0.87647327  0.86156863  0.66660283    -0.73530
O118        O  0.91932641  0.89766990  0.61676309    -0.73560
O119        O  0.91540982  0.89737497  0.66942056    -0.73620
O120        O  0.88013823  0.86178239  0.61409354    -0.73670
O121        O  0.85031696  0.89379935  0.61251273    -0.73600
O122        O  0.88644056  0.92991125  0.66693988    -0.73580
O123        O  0.88963689  0.92976568  0.61409615    -0.73550
O124        O  0.84724222  0.89401732  0.66509077    -0.73620
Ni125      Ni  0.89887960  0.87848898  0.64171335     1.25410
Ni126      Ni  0.86736711  0.91302537  0.63953462     1.25360
C127        C  0.85487349  0.87189275  0.67434041     0.88650
C128        C  0.91171430  0.91968988  0.60738433     0.88580
C129        C  0.90675391  0.91951320  0.67751415     0.88610
C130        C  0.85906272  0.87165354  0.60460275     0.88780
O131        O  0.87685953  0.68771354  0.91191805    -0.73530
O132        O  0.83936074  0.63629750  0.87375176    -0.73560
O133        O  0.87339471  0.63458797  0.91358027    -0.73620
O134        O  0.84198158  0.68936712  0.87269426    -0.73670
O135        O  0.87519264  0.68748034  0.84472200    -0.73600
O136        O  0.90541761  0.63047603  0.88436660    -0.73580
O137        O  0.87130386  0.63474630  0.84468113    -0.73550
O138        O  0.91011623  0.68356568  0.88398118    -0.73620
Ni139      Ni  0.85672439  0.66208458  0.89400975     1.25410
Ni140      Ni  0.89171349  0.65897216  0.86347456     1.25360
C141        C  0.89964881  0.69425159  0.90384046     0.88650
C142        C  0.84909161  0.62689038  0.85281183     0.88580
C143        C  0.89418442  0.62306673  0.90545116     0.88610
C144        C  0.85340319  0.69778594  0.85216758     0.88780
O145        O  0.67502556  0.87322937  0.86338296    -0.73530
O146        O  0.61824870  0.91050075  0.89489019    -0.73560
O147        O  0.62200392  0.87274201  0.85874209    -0.73620
O148        O  0.67148141  0.91147230  0.89921120    -0.73670
O149        O  0.67358907  0.94150162  0.86786924    -0.73600
O150        O  0.62353670  0.90300316  0.82759654    -0.73580
O151        O  0.61948796  0.94077701  0.86395222    -0.73550
O152        O  0.67677028  0.90298479  0.83169974    -0.73620
Ni153      Ni  0.64660837  0.89100694  0.88015892     1.25410
Ni154      Ni  0.64845312  0.92326179  0.84672635     1.25360
C155        C  0.68521805  0.88180872  0.84236602     0.88650
C156        C  0.60863060  0.93111193  0.88432643     0.88580
C157        C  0.61454234  0.88146490  0.83656040     0.88610
C158        C  0.68133893  0.93248753  0.88983594     0.88780
O159        O  0.89174089  0.09550228  0.92484291    -0.73530
O160        O  0.93176047  0.14343024  0.88298126    -0.73560
O161        O  0.89688701  0.14854259  0.92240740    -0.73620
O162        O  0.92684576  0.09038665  0.88504459    -0.73670
O163        O  0.89487976  0.09374117  0.85575306    -0.73600
O164        O  0.86372145  0.14909811  0.89468812    -0.73580
O165        O  0.89844728  0.14659642  0.85565743    -0.73550
O166        O  0.85992651  0.09661336  0.89541822    -0.73620
Ni167      Ni  0.91302108  0.11932760  0.90487814     1.25410
Ni168      Ni  0.87814920  0.12153859  0.87440091     1.25360
C169        C  0.86911934  0.08812534  0.91698533     0.88650
C170        C  0.92144994  0.15352334  0.86256738     0.88580
C171        C  0.87520376  0.15858062  0.91452987     0.88610
C172        C  0.91590960  0.08284425  0.86399817     0.88780
O173        O  0.24243060  0.44091120  0.28267622    -0.80000
O174        O  0.27199604  0.52661888  0.20269535    -0.64690
O175        O  0.27119376  0.48233998  0.26256094    -1.11290
C176        C  0.20844795  0.54410418  0.29458356     1.06890
O177        O  0.27355711  0.56105620  0.22837064    -0.77890
O178        O  0.27033251  0.55891324  0.27895058    -0.65480
Ni179      Ni  0.27265399  0.44538362  0.26107941     1.34870
C180        C  0.27890693  0.54289349  0.29577884     0.85630
O181        O  0.29754840  0.48265102  0.21443683    -0.78430
O182        O  0.30264517  0.44618992  0.23846524    -0.88710
C183        C  0.27942192  0.54992635  0.20717739     0.85200
O184        O  0.25045690  0.44173761  0.23195839    -0.66910
O185        O  0.21701547  0.55949864  0.27711712    -0.86200
C186        C  0.24071305  0.45684553  0.21490443     0.86030
C187        C  0.30759301  0.46011320  0.21849617     1.07600
H188        H  0.22716618  0.51805011  0.24045203     0.39400
O189        O  0.24340103  0.52146763  0.24938380    -1.08860
O190        O  0.26956095  0.51998089  0.29892947    -0.65510
Ni191      Ni  0.24311298  0.50046436  0.27994485     1.26350
O192        O  0.24505889  0.48149356  0.21401383    -0.65740
O193        O  0.21574372  0.52026926  0.29697565    -0.78030
C194        C  0.23325042  0.45310641  0.30211501     0.85410
O195        O  0.24115769  0.47590172  0.30786023    -0.65210
Ni196      Ni  0.24502356  0.55829903  0.25225490     1.27450
Ni197      Ni  0.27091093  0.50276698  0.23169815     1.26060
H198        H  0.28731265  0.48683912  0.27119335     0.39960
O199        O  0.19820414  0.27355327  0.54336544    -0.80000
O200        O  0.26727627  0.23545179  0.44616450    -0.64690
O201        O  0.23435683  0.24528240  0.51255311    -1.11290
C202        C  0.30412723  0.30114475  0.53245177     1.06890
O203        O  0.30832148  0.24096807  0.45895946    -0.77890
O204        O  0.30711603  0.23511900  0.50862730    -0.65480
Ni205      Ni  0.19738932  0.25225607  0.51316649     1.34870
C206        C  0.29965524  0.23395295  0.53192744     0.85630
O207        O  0.22686339  0.21377830  0.46870908    -0.78430
O208        O  0.18982803  0.23200890  0.48271809    -0.88710
C209        C  0.29153638  0.22996484  0.44480559     0.85200
O210        O  0.20336316  0.28290120  0.49349606    -0.66910
O211        O  0.31643051  0.28691067  0.51635363    -0.86200
C212        C  0.20909928  0.28268940  0.46967562     0.86030
C213        C  0.20214342  0.21643181  0.46791670     1.07600
H214        H  0.26762566  0.28525515  0.47943011     0.39400
O215        O  0.27189265  0.26970649  0.48930477    -1.08860
O216        O  0.28084588  0.24824771  0.54068948    -0.65510
Ni217      Ni  0.25682785  0.27329974  0.52347059     1.26350
O218        O  0.22626721  0.26661957  0.46072760    -0.65740
O219        O  0.27926731  0.30139574  0.53356687    -0.78030
C220        C  0.21502779  0.28264066  0.55875648     0.85410
O221        O  0.23944730  0.27819108  0.55622289    -0.65210
Ni222      Ni  0.30908020  0.26478017  0.48727421     1.27450
Ni223      Ni  0.24967491  0.24142243  0.47857658     1.26060
H224        H  0.23789061  0.22969550  0.52266024     0.39960
O225        O  0.49379372  0.71996434  0.69284962    -0.80000
O226        O  0.53220416  0.81574498  0.76170532    -0.64690
O227        O  0.52357247  0.74910652  0.72936128    -1.11290
C228        C  0.46333112  0.73050592  0.79475693     1.06890
O229        O  0.52531284  0.80290546  0.80228607    -0.77890
O230        O  0.53061126  0.75226427  0.80136067    -0.65480
Ni231      Ni  0.52024756  0.74680453  0.69229815     1.34870
C232        C  0.53176209  0.72910478  0.79303902     0.85630
O233        O  0.55648045  0.79248706  0.72363090    -0.78430
O234        O  0.54547194  0.77402984  0.68605482    -0.88710
C235        C  0.53621499  0.81776413  0.78583368     0.85200
O236        O  0.49295856  0.77193694  0.69007845    -0.66910
O237        O  0.47744789  0.74539323  0.80855401    -0.86200
C238        C  0.49174627  0.79452094  0.70006846     0.86030
C239        C  0.55767391  0.79112529  0.69911312     1.07600
H240        H  0.48262636  0.78355260  0.76049314     0.39400
O241        O  0.49762556  0.77313224  0.76522954    -1.08860
O242        O  0.51753953  0.72119264  0.77429598    -0.65510
Ni243      Ni  0.49412170  0.73919416  0.74999507     1.26350
O244        O  0.50414225  0.80098060  0.72052557    -0.65740
O245        O  0.46455786  0.73016384  0.77032330    -0.78030
C246        C  0.48422277  0.70458491  0.70969118     0.85410
O247        O  0.48986412  0.70627752  0.73347812    -0.65210
Ni248      Ni  0.50100518  0.77442512  0.80228815     1.27450
Ni249      Ni  0.52735663  0.78298701  0.74464709     1.26060
H250        H  0.53865018  0.73864828  0.73420890     0.39960
O251        O  0.23417023  0.80905390  0.96586531    -0.80000
O252        O  0.26959836  0.73109859  0.05328277    -0.64690
O253        O  0.26619510  0.77292520  0.99197109    -1.11290
C254        C  0.21138856  0.70355390  0.96205805     1.06890
O255        O  0.27583455  0.69508503  0.03030320    -0.77890
O256        O  0.27234460  0.69279722  0.97883608    -0.65480
Ni257      Ni  0.25898069  0.80958266  0.99345886     1.34870
C258        C  0.27971992  0.70813129  0.96091682     0.85630
O259        O  0.29114331  0.77641089  0.04055535    -0.78430
O260        O  0.28266640  0.81488246  0.02157703    -0.88710
C261        C  0.28084082  0.70915902  0.04990089     0.85200
O262        O  0.23035176  0.80730557  0.01660317    -0.66910
O263        O  0.21984019  0.69011644  0.98121195    -0.86200
C264        C  0.22397224  0.79156434  0.03450703     0.86030
C265        C  0.29384110  0.80110747  0.03891941     1.07600
H266        H  0.22570702  0.73393571  0.01392154     0.39400
O267        O  0.24275838  0.73135446  0.00613486    -1.08860
O268        O  0.27105552  0.73151802  0.95818035    -0.65510
Ni269      Ni  0.24206034  0.75037611  0.97449701     1.26350
O270        O  0.23736537  0.77105342  0.03998355    -0.65740
O271        O  0.21810941  0.72717127  0.95807680    -0.78030
C272        C  0.23085679  0.79515764  0.94589022     0.85410
O273        O  0.23975207  0.77195817  0.94422197    -0.65210
Ni274      Ni  0.24742688  0.69446921  0.00605887     1.27450
Ni275      Ni  0.26708780  0.75343121  0.02362169     1.26060
H276        H  0.28320949  0.77109417  0.98389956     0.39960
O277        O  0.96822896  0.53149118  0.94300642    -0.80000
O278        O  0.06275616  0.48770071  0.01290557    -0.64690
O279        O  0.99719644  0.50075650  0.97856420    -1.11290
C280        C  0.97726597  0.55157266  0.05164527     1.06890
O281        O  0.04594030  0.48470005  0.05239875    -0.77890
O282        O  0.99365472  0.48431634  0.05041902    -0.65480
Ni283      Ni  0.99762368  0.50790362  0.94195979     1.34870
C284        C  0.97194491  0.48458690  0.03841385     0.85630
O285        O  0.04091529  0.46781051  0.97152344    -0.78430
O286        O  0.02725996  0.48541162  0.93460419    -0.88710
C287        C  0.06367468  0.47931983  0.03606355     0.85200
O288        O  0.01979298  0.53677100  0.94619550    -0.66910
O289        O  0.99222556  0.53561100  0.06336126    -0.86200
C290        C  0.04162388  0.53801876  0.95775893     0.86030
C291        C  0.04156382  0.46932030  0.94707508     1.07600
H292        H  0.03010196  0.53573758  0.01727849     0.39400
O293        O  0.01916381  0.52046906  0.01896596    -1.08860
O294        O  0.96600358  0.50179762  0.02128670    -0.65510
Ni295      Ni  0.98630751  0.52788186  0.00229923     1.26350
O296        O  0.04892039  0.52134898  0.97500495    -0.65740
O297        O  0.97650173  0.55382824  0.02709239    -0.78030
C298        C  0.95247720  0.54144422  0.95934636     0.85410
O299        O  0.95465917  0.53727063  0.98367453    -0.65210
Ni300      Ni  0.01895409  0.51084774  0.05499042     1.27450
Ni301      Ni  0.03045424  0.49445115  0.99501836     1.26060
H302        H  0.98651549  0.48543460  0.98109864     0.39960
O303        O  0.24314391  0.94391701  0.77337970    -0.80000
O304        O  0.27671720  0.02846174  0.69182827    -0.64690
O305        O  0.27356931  0.98432957  0.75210840    -1.11290
C306        C  0.21186254  0.04839053  0.78052427     1.06890
O307        O  0.28103453  0.06175279  0.71859285    -0.77890
O308        O  0.27218342  0.06258882  0.76912915    -0.65480
Ni309      Ni  0.27246294  0.94712589  0.75030587     1.34870
C310        C  0.27748313  0.04739552  0.78784146     0.85630
O311        O  0.30097285  0.98362409  0.70429623    -0.78430
O312        O  0.30141050  0.94581516  0.72665554    -0.88710
C313        C  0.28478155  0.05154584  0.69652370     0.85200
O314        O  0.24824979  0.94555382  0.72253461    -0.66910
O315        O  0.22045936  0.06305032  0.76234093    -0.86200
C316        C  0.23875884  0.96151622  0.70608089     0.86030
C317        C  0.30925248  0.96040518  0.70824469     1.07600
H318        H  0.23140416  0.02148526  0.72842608     0.39400
O319        O  0.24758617  0.02429209  0.73766290    -1.08860
O320        O  0.27027057  0.02351561  0.78877066    -0.65510
Ni321      Ni  0.24546731  0.00369376  0.76806696     1.26350
O322        O  0.24719454  0.98488274  0.70317141    -0.65740
O323        O  0.21832586  0.02443672  0.78309172    -0.78030
C324        C  0.23430519  0.95701760  0.79234014     0.85410
O325        O  0.24156529  0.98025998  0.79662833    -0.65210
Ni326      Ni  0.25031953  0.06090848  0.73979389     1.27450
Ni327      Ni  0.27451467  0.00459194  0.72082174     1.26060
H328        H  0.28948884  0.98823247  0.76138586     0.39960
O329        O  0.69815644  0.79224823  0.51542064    -0.80000
O330        O  0.77592740  0.73220012  0.44856460    -0.64690
O331        O  0.73381584  0.75179270  0.50623427    -1.11290
C332        C  0.80153938  0.80655101  0.53153604     1.06890
O333        O  0.81388088  0.73530636  0.46954465    -0.77890
O334        O  0.79681211  0.73522569  0.51715237    -0.65480
Ni335      Ni  0.69718454  0.75747087  0.50210976     1.34870
C336        C  0.79075540  0.74109378  0.53994842     0.85630
O337        O  0.72906515  0.71644275  0.46428789    -0.78430
O338        O  0.69289888  0.72323751  0.48827420    -0.88710
C339        C  0.79970424  0.72576792  0.45188245     0.85200
O340        O  0.69747336  0.77196757  0.46786113    -0.66910
O341        O  0.81476944  0.78704415  0.52322009    -0.86200
C342        C  0.71499012  0.77548284  0.45073008     0.86030
C343        C  0.70505138  0.71179845  0.46993520     1.07600
H344        H  0.77672908  0.78462781  0.47559211     0.39400
O345        O  0.77652786  0.77042523  0.48801039    -1.08860
O346        O  0.77338989  0.75882054  0.54383400    -0.65510
Ni347      Ni  0.75505758  0.78034206  0.51718228     1.26350
O348        O  0.73829487  0.76713655  0.45284151    -0.65740
O349        O  0.77715835  0.80900783  0.52672298    -0.78030
C350        C  0.70882476  0.80008755  0.53611660     0.85410
O351        O  0.73081218  0.79090546  0.54343708    -0.65210
Ni352      Ni  0.81154157  0.76122225  0.49580253     1.27450
Ni353      Ni  0.75377346  0.74252837  0.47641438     1.26060
H354        H  0.73576686  0.73775959  0.51869610     0.39960
O355        O  0.02260737  0.81243371  0.28041965    -0.80000
O356        O  0.98101077  0.72641786  0.20371735    -0.64690
O357        O  0.99077997  0.77418499  0.25943958    -1.11290
C358        C  0.05180013  0.70821530  0.28712317     1.06890
O359        O  0.98138385  0.69297067  0.23108858    -0.77890
O360        O  0.99569661  0.69432232  0.28057034    -0.65480
Ni361      Ni  0.99554563  0.81046695  0.25461712     1.34870
C362        C  0.98469770  0.71119440  0.29508980     0.85630
O363        O  0.95780631  0.77153381  0.21670543    -0.78430
O364        O  0.96861343  0.81226393  0.22841714    -0.88710
C365        C  0.97315488  0.70378118  0.21047230     0.85200
O366        O  0.02202851  0.80691049  0.22897368    -0.66910
O367        O  0.04718786  0.69723067  0.26559577    -0.86200
C368        C  0.02448117  0.79140610  0.20998599     0.86030
C369        C  0.95461820  0.79621914  0.21563703     1.07600
H370        H  0.03068865  0.73706289  0.23532757     0.39400
O371        O  0.01514199  0.73324677  0.24533011    -1.08860
O372        O  0.98942003  0.73552325  0.29382387    -0.65510
Ni373      Ni  0.01728258  0.75341069  0.27602797     1.26350
O374        O  0.01085866  0.77057988  0.20738461    -0.65740
O375        O  0.04210304  0.73049277  0.29314804    -0.78030
C376        C  0.02944755  0.79915370  0.30026672     0.85410
O377        O  0.02045209  0.77646868  0.30462842    -0.65210
Ni378      Ni  0.01429457  0.69643627  0.24827544     1.27450
Ni379      Ni  0.98652114  0.75189779  0.23036385     1.26060
H380        H  0.97481634  0.77291338  0.26945783     0.39960
O381        O  0.55336204  0.96066849  0.01929849    -0.80000
O382        O  0.48289095  0.03109890  0.95505924    -0.64690
O383        O  0.52624703  0.00641999  0.00998927    -1.11290
C384        C  0.44916075  0.95978721  0.03339542     1.06890
O385        O  0.45341390  0.03911094  0.98512193    -0.77890
O386        O  0.44956444  0.02093593  0.03338827    -0.65480
Ni387      Ni  0.56071475  0.99439785  0.00481585     1.34870
C388        C  0.46736960  0.02176484  0.05042284     0.85630
O389        O  0.53303619  0.04110628  0.96874937    -0.78430
O390        O  0.56971533  0.02729396  0.98946252    -0.88710
C391        C  0.46127875  0.04146775  0.96194502     0.85200
O392        O  0.55717954  0.97992846  0.97116702    -0.66910
O393        O  0.43740200  0.97302896  0.01584586    -0.86200
C394        C  0.53970357  0.98054822  0.95378838     0.86030
C395        C  0.55774306  0.04183137  0.97303524     1.07600
H396        H  0.47991661  0.97969618  0.98349820     0.39400
O397        O  0.48093519  0.99437716  0.99519096    -1.08860
O398        O  0.48933632  0.00981704  0.04827954    -0.65510
Ni399      Ni  0.50093551  0.98294707  0.02402806     1.26350
O400        O  0.51789760  0.99253949  0.95639949    -0.65740
O401        O  0.47382150  0.96104832  0.03769548    -0.78030
C402        C  0.54453826  0.95713786  0.04202990     0.85410
O403        O  0.52442421  0.96965741  0.05002523    -0.65210
Ni404      Ni  0.44616634  0.00573193  0.00006844     1.27450
Ni405      Ni  0.50610967  0.01834674  0.98145812     1.26060
H406        H  0.52771980  0.02104385  0.02169655     0.39960
C407        C  0.29826690  0.76494896  0.30070652     0.04020
C408        C  0.30745352  0.77936896  0.27961133    -0.12130
C409        C  0.29317902  0.80088831  0.27014736     0.01520
C410        C  0.26963380  0.80805846  0.28247283    -0.10650
C411        C  0.26133969  0.79460420  0.30469924     0.04020
C412        C  0.27532108  0.77271033  0.31340704    -0.10070
H413        H  0.32603374  0.77399458  0.27082982     0.09610
H414        H  0.25851308  0.82484877  0.27568234     0.07140
H415        H  0.26894479  0.76238578  0.33067833     0.06990
O416        O  0.37142841  0.67469733  0.41196572    -0.73530
O417        O  0.33364302  0.62127556  0.37513685    -0.73560
O418        O  0.36565711  0.62225651  0.41660472    -0.73620
O419        O  0.33856214  0.67379103  0.37074085    -0.73670
O420        O  0.37306990  0.66877251  0.34441885    -0.73600
O421        O  0.39968751  0.61612145  0.38986659    -0.73580
O422        O  0.36793392  0.61617358  0.34883813    -0.73550
O423        O  0.40561749  0.66832723  0.38565866    -0.73620
Ni424      Ni  0.35106684  0.64827587  0.39456232     1.25410
Ni425      Ni  0.38778508  0.64219531  0.36625229     1.25360
C426        C  0.39498480  0.68000228  0.40493639     0.88650
C427        C  0.34481211  0.60973494  0.35593393     0.88580
C428        C  0.38682455  0.61042682  0.41040741     0.88610
C429        C  0.35127441  0.67980208  0.35024160     0.88780
C430        C  0.49866709  0.95707543  0.29863684     0.04020
C431        C  0.48788632  0.97756161  0.31324223    -0.12130
C432        C  0.46344363  0.98829704  0.30647161     0.01520
C433        C  0.44920056  0.97708528  0.28594689    -0.10650
C434        C  0.46027751  0.95733308  0.27013936     0.04020
C435        C  0.48590485  0.94879929  0.27602701    -0.10070
H436        H  0.49810460  0.98457290  0.33021940     0.09610
H437        H  0.42933745  0.98380693  0.28258324     0.07140
H438        H  0.49558676  0.93437633  0.26400553     0.06990
O439        O  0.58808951  0.86738258  0.32727129    -0.73530
O440        O  0.64468334  0.82711420  0.35797024    -0.73560
O441        O  0.59158628  0.82679385  0.36187664    -0.73620
O442        O  0.64112566  0.86603322  0.32257635    -0.73670
O443        O  0.64512141  0.89423597  0.35524513    -0.73600
O444        O  0.59291651  0.85611817  0.39359591    -0.73580
O445        O  0.64557534  0.85537622  0.39051354    -0.73550
O446        O  0.59223399  0.89660153  0.35896880    -0.73620
Ni447      Ni  0.61619744  0.84576806  0.34125788     1.25410
Ni448      Ni  0.61898387  0.87660553  0.37568826     1.25360
C449        C  0.58141743  0.88913813  0.33798593     0.88650
C450        C  0.65454730  0.83488157  0.37952213     0.88580
C451        C  0.58410125  0.83465484  0.38421567     0.88610
C452        C  0.65161774  0.88620246  0.33255828     0.88780
O453        O  0.36752427  0.85057215  0.18086955    -0.73530
O454        O  0.40248773  0.88572531  0.12598282    -0.73560
O455        O  0.40579734  0.88656707  0.17820185    -0.73620
O456        O  0.36442155  0.85017668  0.12865892    -0.73670
O457        O  0.33541782  0.88306333  0.12832583    -0.73600
O458        O  0.37511058  0.91740762  0.18136481    -0.73580
O459        O  0.37422113  0.91862883  0.12854831    -0.73550
O460        O  0.33646686  0.88143192  0.18102861    -0.73620
Ni461      Ni  0.38611239  0.86717609  0.15344125     1.25410
Ni462      Ni  0.35421229  0.90134715  0.15490479     1.25360
C463        C  0.34596545  0.85984114  0.18967440     0.88650
C464        C  0.39419927  0.90786169  0.11778812     0.88580
C465        C  0.39714057  0.90764741  0.18858014     0.88610
C466        C  0.34357754  0.86095847  0.11981249     0.88780
C467        C  0.27522995  0.94678527  0.45205821     0.04020
C468        C  0.28344300  0.97056857  0.44090690    -0.12130
C469        C  0.30759522  0.98176708  0.44786311     0.01520
C470        C  0.32286640  0.96903989  0.46689482    -0.10650
C471        C  0.31390037  0.94640727  0.47934457     0.04020
C472        C  0.29039499  0.93503229  0.47152317    -0.10070
H473        H  0.27109009  0.98005492  0.42659952     0.09610
H474        H  0.34177347  0.97682239  0.47229291     0.07140
H475        H  0.28405024  0.91691013  0.48042518     0.06990
C476        C  0.49981473  0.78764902  0.44436730     0.04020
C477        C  0.48460654  0.76587307  0.43730758    -0.12130
C478        C  0.46103817  0.76013732  0.45030508     0.01520
C479        C  0.45369439  0.77526072  0.47179173    -0.10650
C480        C  0.46910150  0.79633666  0.47987877     0.04020
C481        C  0.49181448  0.80258819  0.46585311    -0.10070
H482        H  0.49061110  0.75378405  0.42113593     0.09610
H483        H  0.43568760  0.77084280  0.48204109     0.07140
H484        H  0.50306681  0.81949846  0.47151557     0.06990
O485        O  0.39511842  0.91413595  0.57093182    -0.73530
O486        O  0.43727957  0.88393722  0.62476479    -0.73560
O487        O  0.43550884  0.87958932  0.57242696    -0.73620
O488        O  0.39668493  0.91866857  0.62323194    -0.73670
O489        O  0.36869416  0.88558838  0.62661179    -0.73600
O490        O  0.40741217  0.84662032  0.57648852    -0.73580
O491        O  0.40875027  0.85122253  0.62867487    -0.73550
O492        O  0.36720039  0.88085285  0.57433789    -0.73620
Ni493      Ni  0.41719009  0.90028785  0.59777095     1.25410
Ni494      Ni  0.38701103  0.86494355  0.60172456     1.25360
C495        C  0.37445131  0.90220857  0.56359086     0.88650
C496        C  0.43002939  0.86242989  0.63526171     0.88580
C497        C  0.42763847  0.85678888  0.56587507     0.88610
C498        C  0.37595831  0.90859278  0.63300823     0.88780
O499        O  0.41676808  0.08515217  0.37964495    -0.73530
O500        O  0.37122656  0.13794946  0.40961283    -0.73560
O501        O  0.37488941  0.08453663  0.41153091    -0.73620
O502        O  0.41433356  0.13838839  0.37848108    -0.73670
O503        O  0.38815662  0.13637548  0.34391657    -0.73600
O504        O  0.34817229  0.08268731  0.37767053    -0.73580
O505        O  0.34533171  0.13577625  0.37502123    -0.73550
O506        O  0.39007176  0.08334689  0.34557254    -0.73620
Ni507      Ni  0.39520241  0.11166992  0.39609035     1.25410
Ni508      Ni  0.36700756  0.10950786  0.35935773     1.25360
C509        C  0.41052281  0.07533439  0.35760749     0.88650
C510        C  0.35075477  0.14566988  0.39707372     0.88580
C511        C  0.35548570  0.07409121  0.39995799     0.88610
C512        C  0.40790410  0.14604823  0.35575523     0.88780
O513        O  0.17139712  0.83682562  0.38656022    -0.73530
O514        O  0.11856418  0.87833612  0.41978519    -0.73560
O515        O  0.11843481  0.83894367  0.38474853    -0.73620
O516        O  0.17223651  0.87645408  0.42114984    -0.73670
O517        O  0.17425261  0.90494465  0.38840048    -0.73600
O518        O  0.11964527  0.86914635  0.35367038    -0.73580
O519        O  0.12115941  0.90805845  0.38805134    -0.73550
O520        O  0.17232839  0.86551965  0.35382382    -0.73620
Ni521      Ni  0.14505221  0.85666249  0.40434884     1.25410
Ni522      Ni  0.14693527  0.88797588  0.36992031     1.25360
C523        C  0.18024721  0.84427584  0.36455289     0.88650
C524        C  0.11085655  0.89964246  0.40906789     0.88580
C525        C  0.11038079  0.84787907  0.36286358     0.88610
C526        C  0.18282084  0.89632358  0.41011812     0.88780
O527        O  0.79134551  0.02687920  0.19219975    -0.80000
O528        O  0.73082444  0.95507512  0.25824649    -0.64690
O529        O  0.74779897  0.01616078  0.22036309    -1.11290
C530        C  0.79384738  0.04328791  0.29288412     1.06890
O531        O  0.72684599  0.97498119  0.29648287    -0.77890
O532        O  0.72614187  0.02741198  0.28888970    -0.65480
Ni533      Ni  0.75721704  0.01398879  0.18515812     1.34870
C534        C  0.72852115  0.04850203  0.27597677     0.85630
O535        O  0.71692565  0.97279121  0.21147244    -0.78430
O536        O  0.72400850  0.99918450  0.17690281    -0.88710
C537        C  0.72259323  0.95587975  0.28142960     0.85200
O538        O  0.77262888  0.98026238  0.18444323    -0.66910
O539        O  0.77684157  0.02975945  0.30484034    -0.86200
C540        C  0.77750714  0.96335581  0.20168356     0.86030
C541        C  0.71277967  0.97991709  0.18799098     1.07600
H542        H  0.77920079  0.98714681  0.26427763     0.39400
O543        O  0.76391343  0.99837262  0.26354609    -1.08860
O544        O  0.74679575  0.05218535  0.25928527    -0.65510
Ni545      Ni  0.77321936  0.02897800  0.24396396     1.26350
O546        O  0.76800054  0.96425459  0.22439043    -0.65740
O547        O  0.79780482  0.04117795  0.26865141    -0.78030
C548        C  0.79592336  0.04957490  0.20039841     0.85410
O549        O  0.78435005  0.05697826  0.22108561    -0.65210
Ni550      Ni  0.75227134  0.00248749  0.29818851     1.27450
Ni551      Ni  0.73975641  0.98511784  0.23836592     1.26060
H552        H  0.73244177  0.02729994  0.22112598     0.39960
O553        O  0.73358202  0.19503630  0.97013889    -0.80000
O554        O  0.80880660  0.27383305  0.02476176    -0.64690
O555        O  0.75159697  0.22857859  0.00980302    -1.11290
C556        C  0.72674030  0.29492225  0.94942771     1.06890
O557        O  0.78484708  0.31036814  0.02190189    -0.77890
O558        O  0.73343336  0.31014020  0.00979016    -0.65480
Ni559      Ni  0.75745860  0.19349863  0.99874343     1.34870
C560        C  0.71573556  0.29418660  0.01654389     0.85630
O561        O  0.79471322  0.22628754  0.04287032    -0.78430
O562        O  0.78182993  0.18787326  0.02603965    -0.88710
C563        C  0.80501750  0.29790850  0.02977110     0.85200
O564        O  0.78513846  0.20076462  0.97488345    -0.66910
O565        O  0.74465694  0.30941985  0.95874236    -0.86200
C566        C  0.80455691  0.21603784  0.97643127     0.86030
C567        C  0.79556379  0.20126145  0.04156637     1.07600
H568        H  0.77786703  0.26758806  0.97378504     0.39400
O569        O  0.76729201  0.27085660  0.98900079    -1.08860
O570        O  0.71590289  0.26991776  0.01025538    -0.65510
Ni571      Ni  0.73649860  0.25075564  0.98434315     1.26350
O572        O  0.80581111  0.23447243  0.99274681    -0.65740
O573        O  0.72232432  0.27223177  0.95804102    -0.78030
C574        C  0.71196083  0.20701002  0.96751719     0.85410
O575        O  0.70734497  0.22830435  0.97916168    -0.65210
Ni576      Ni  0.76492364  0.30791912  0.99029994     1.27450
Ni577      Ni  0.78127703  0.24992354  0.01683900     1.26060
H578        H  0.74047672  0.22821030  0.02499898     0.39960
C579        C  0.31089723  0.30237141  0.76107199     0.04020
C580        C  0.28672703  0.31363099  0.76825498    -0.12130
C581        C  0.27178465  0.30278600  0.78835775     0.01520
C582        C  0.28008120  0.27979885  0.80050338    -0.10650
C583        C  0.30394464  0.26813347  0.79373211     0.04020
C584        C  0.31947267  0.27951008  0.77412068    -0.10070
H585        H  0.27993857  0.33142852  0.75890442     0.09610
H586        H  0.26858482  0.27173035  0.81629382     0.07140
H587        H  0.33836215  0.27091932  0.76947571     0.06990
C588        C  0.48786983  0.29490141  0.94494515     0.04020
C589        C  0.47529070  0.27296597  0.93461845    -0.12130
C590        C  0.45131435  0.26455662  0.94480685     0.01520
C591        C  0.44014343  0.27759465  0.96600258    -0.10650
C592        C  0.45301711  0.29889182  0.97729715     0.04020
C593        C  0.47683402  0.30742324  0.96659507    -0.10070
H594        H  0.48374569  0.26287184  0.91812512     0.09610
H595        H  0.42134239  0.27132207  0.97349852     0.07140
H596        H  0.48649094  0.32428210  0.97478513     0.06990
C597        C  0.45909272  0.49272973  0.79570739     0.04020
C598        C  0.45315127  0.48191395  0.77114869    -0.12130
C599        C  0.46566350  0.45872645  0.76269101     0.01520
C600        C  0.48626550  0.44831988  0.77742674    -0.10650
C601        C  0.49217917  0.45870378  0.80164816     0.04020
C602        C  0.47788991  0.47991099  0.81116837    -0.10070
H603        H  0.43837072  0.49089528  0.75896681     0.09610
H604        H  0.49682028  0.43117048  0.77065821     0.07140
H605        H  0.48178594  0.48657726  0.83069113     0.06990
C606        C  0.30882132  0.45554607  0.98106601     0.04020
C607        C  0.28754133  0.44481555  0.96748047    -0.12130
C608        C  0.27463050  0.45898487  0.94758684     0.01520
C609        C  0.28379356  0.48417482  0.94155562    -0.10650
C610        C  0.30676194  0.49372878  0.95277857     0.04020
C611        C  0.31893858  0.47966674  0.97281055    -0.10070
H612        H  0.28117034  0.42530918  0.97248252     0.09610
H613        H  0.27402594  0.49595670  0.92696790     0.07140
H614        H  0.33666269  0.48717306  0.98151343     0.06990
O615        O  0.38388911  0.58904249  0.83839414    -0.73530
O616        O  0.34384022  0.63973670  0.87516299    -0.73560
O617        O  0.38104147  0.64196377  0.83816488    -0.73620
O618        O  0.34708029  0.58672320  0.87621979    -0.73670
O619        O  0.37755377  0.58931415  0.90705288    -0.73600
O620        O  0.41233058  0.64268197  0.86831369    -0.73580
O621        O  0.37448909  0.64226892  0.90573885    -0.73550
O622        O  0.41435875  0.58931596  0.86901313    -0.73620
Ni623      Ni  0.36289297  0.61433476  0.85593549     1.25410
Ni624      Ni  0.39587144  0.61604635  0.88857725     1.25360
C625        C  0.40534911  0.58006547  0.84765834     0.88650
C626        C  0.35198109  0.64898431  0.89664683     0.88580
C627        C  0.40246719  0.65121002  0.84709318     0.88610
C628        C  0.35678548  0.57903923  0.89793764     0.88780
O629        O  0.58398048  0.40885394  0.87686606    -0.73530
O630        O  0.63903668  0.36574579  0.90317136    -0.73560
O631        O  0.63702506  0.40742919  0.87250614    -0.73620
O632        O  0.58594461  0.36599971  0.90762066    -0.73670
O633        O  0.58390178  0.34008129  0.87301275    -0.73600
O634        O  0.63342625  0.38262224  0.83745546    -0.73580
O635        O  0.63678125  0.34037116  0.86806325    -0.73550
O636        O  0.58086130  0.38286460  0.84229466    -0.73620
Ni637      Ni  0.61152601  0.38792631  0.89132142     1.25410
Ni638      Ni  0.60856136  0.36052638  0.85400195     1.25360
C639        C  0.57353570  0.40296969  0.85517429     0.88650
C640        C  0.64747938  0.34665625  0.88953357     0.88580
C641        C  0.64419206  0.40155475  0.84941270     0.88610
C642        C  0.57625845  0.34628418  0.89584815     0.88780
O643        O  0.36333178  0.37527526  0.66945191    -0.73530
O644        O  0.40316778  0.40726345  0.61435594    -0.73560
O645        O  0.36269851  0.37349482  0.61704042    -0.73620
O646        O  0.40305093  0.41013772  0.66682885    -0.73670
O647        O  0.43158227  0.37694593  0.66888815    -0.73600
O648        O  0.39107643  0.34006802  0.61786094    -0.73580
O649        O  0.43114387  0.37382145  0.61606301    -0.73550
O650        O  0.39188369  0.34208944  0.67039233    -0.73620
Ni651      Ni  0.38206087  0.39272713  0.64187395     1.25410
Ni652      Ni  0.41249252  0.35708447  0.64336500     1.25360
C653        C  0.37108078  0.35322841  0.67884423     0.88650
C654        C  0.42381871  0.39551589  0.60595259     0.88580
C655        C  0.37015585  0.35100740  0.60915950     0.88610
C656        C  0.42364578  0.39960570  0.67638748     0.88780
O657        O  0.38055870  0.41240664  0.07599250    -0.73530
O658        O  0.42251419  0.37591270  0.12602695    -0.73560
O659        O  0.41826978  0.37522077  0.07356656    -0.73620
O660        O  0.38472316  0.41292644  0.12855705    -0.73670
O661        O  0.35432469  0.38184203  0.13120933    -0.73600
O662        O  0.38812452  0.34400564  0.07668690    -0.73580
O663        O  0.39274608  0.34454107  0.12906333    -0.73550
O664        O  0.35043210  0.38107713  0.07839245    -0.73620
Ni665      Ni  0.40256669  0.39521042  0.10099012     1.25410
Ni666      Ni  0.37027382  0.36178864  0.10405987     1.25360
C667        C  0.35897665  0.40241254  0.06837367     0.88650
C668        C  0.41504026  0.35401322  0.13552686     0.88580
C669        C  0.40849474  0.35358942  0.06583358     0.88610
C670        C  0.36394877  0.40355109  0.13882749     0.88780
O671        O  0.37610030  0.17204553  0.90763084    -0.73530
O672        O  0.33369390  0.11882134  0.87792461    -0.73560
O673        O  0.37512289  0.11958224  0.91081882    -0.73620
O674        O  0.33527899  0.17184065  0.87435713    -0.73670
O675        O  0.36270554  0.16814673  0.84079397    -0.73600
O676        O  0.40271189  0.11701184  0.87734374    -0.73580
O677        O  0.36159177  0.11531275  0.84468971    -0.73550
O678        O  0.40353459  0.16972579  0.87389903    -0.73620
Ni679      Ni  0.35400343  0.14559645  0.89387010     1.25410
Ni680      Ni  0.38359266  0.14238926  0.85798726     1.25360
C681        C  0.39664015  0.17969241  0.89565820     0.88650
C682        C  0.34052789  0.10847628  0.85636793     0.88580
C683        C  0.39586035  0.11015217  0.90020257     0.88610
C684        C  0.34284952  0.17889755  0.85166192     0.88780
O685        O  0.18091959  0.41812011  0.86769570    -0.73530
O686        O  0.12638813  0.38176121  0.83113428    -0.73560
O687        O  0.12760591  0.41930064  0.86731432    -0.73620
O688        O  0.17987441  0.38067757  0.83033530    -0.73670
O689        O  0.17903861  0.34936028  0.86061092    -0.73600
O690        O  0.12821326  0.38903854  0.89863618    -0.73580
O691        O  0.12603498  0.35160733  0.86246814    -0.73550
O692        O  0.18125671  0.38664380  0.89741867    -0.73620
Ni693      Ni  0.15379555  0.40105536  0.84794452     1.25410
Ni694      Ni  0.15366401  0.36807957  0.88083307     1.25360
C695        C  0.19013450  0.40834387  0.88883084     0.88650
C696        C  0.11660468  0.36114139  0.84150218     0.88580
C697        C  0.11918034  0.41034675  0.88890857     0.88610
C698        C  0.18800763  0.35876119  0.83937352     0.88780
C699        C  0.70738264  0.70137108  0.24724307     0.04020
C700        C  0.69611858  0.72342595  0.23457277    -0.12130
C701        C  0.70996433  0.73671225  0.21477438     0.01520
C702        C  0.73492045  0.72772727  0.20772277    -0.10650
C703        C  0.74523797  0.70494137  0.21852621     0.04020
C704        C  0.73229630  0.69270249  0.23916637    -0.10070
H705        H  0.67644437  0.72974706  0.23953591     0.09610
H706        H  0.74533199  0.73709816  0.19190294     0.07140
H707        H  0.74116313  0.67552956  0.24792530     0.06990
O708        O  0.62705051  0.65534771  0.33391847    -0.73530
O709        O  0.58430117  0.62290468  0.38518665    -0.73560
O710        O  0.62399649  0.65763419  0.38608898    -0.73620
O711        O  0.58847524  0.61977976  0.33225161    -0.73670
O712        O  0.61753797  0.58732304  0.33659493    -0.73600
O713        O  0.65302934  0.62554949  0.38967056    -0.73580
O714        O  0.61317412  0.59072745  0.38950324    -0.73550
O715        O  0.65653082  0.62318945  0.33727601    -0.73620
Ni716      Ni  0.60485047  0.63994981  0.35926932     1.25410
Ni717      Ni  0.63602635  0.60545259  0.36340559     1.25360
C718        C  0.64886345  0.64497171  0.32725430     0.88650
C719        C  0.59172085  0.60194045  0.39663350     0.88580
C720        C  0.64478248  0.64812947  0.39664011     0.88610
C721        C  0.59785942  0.59761671  0.32496226     0.88780
C722        C  0.73643925  0.55565828  0.04331376     0.04020
C723        C  0.72649387  0.56821257  0.02100098    -0.12130
C724        C  0.70738721  0.55605770  0.00555594     0.01520
C725        C  0.69896219  0.53084379  0.01248994    -0.10650
C726        C  0.70710117  0.51923140  0.03570965     0.04020
C727        C  0.72604724  0.53146976  0.05090626    -0.10070
H728        H  0.73326523  0.58762409  0.01605856     0.09610
H729        H  0.68446706  0.52097968  0.00079679     0.07140
H730        H  0.73220413  0.52249692  0.06898829     0.06990
C731        C  0.51969087  0.70261514  0.05244573     0.04020
C732        C  0.52628281  0.69454796  0.02726095    -0.12130
C733        C  0.54980418  0.70310350  0.01560682     0.01520
C734        C  0.56467349  0.72200746  0.02868685    -0.10650
C735        C  0.55692802  0.73160617  0.05296878     0.04020
C736        C  0.53509191  0.72091128  0.06512309    -0.10070
H737        H  0.51362059  0.68096100  0.01736114     0.09610
H738        H  0.58258766  0.72919199  0.02011870     0.07140
H739        H  0.52986493  0.72698724  0.08459813     0.06990
C740        C  0.55788318  0.51491382  0.19723167     0.04020
C741        C  0.56808381  0.52471696  0.22069035    -0.12130
C742        C  0.55664336  0.54669712  0.23272239     0.01520
C743        C  0.53443333  0.55844816  0.22155648    -0.10650
C744        C  0.52334053  0.54862763  0.19873430     0.04020
C745        C  0.53526966  0.52688044  0.18669195    -0.10070
H746        H  0.58533326  0.51572921  0.22920663     0.09610
H747        H  0.52598721  0.57569527  0.23053513     0.07140
H748        H  0.52719375  0.51953976  0.16875336     0.06990
O749        O  0.42578050  0.62647795  0.16644764    -0.73530
O750        O  0.37244018  0.66931281  0.13357119    -0.73560
O751        O  0.37231148  0.62822709  0.16737964    -0.73620
O752        O  0.42581867  0.66785604  0.13329686    -0.73670
O753        O  0.42457117  0.64017770  0.09993246    -0.73600
O754        O  0.37151086  0.60066879  0.13414070    -0.73580
O755        O  0.37180879  0.64094530  0.10095084    -0.73550
O756        O  0.42467975  0.59913435  0.13291784    -0.73620
Ni757      Ni  0.39908660  0.64896412  0.15145470     1.25410
Ni758      Ni  0.39810588  0.61926627  0.11589155     1.25360
C759        C  0.43437463  0.60600519  0.15467123     0.88650
C760        C  0.36361251  0.66209337  0.11142095     0.88580
C761        C  0.36280276  0.60806497  0.15625180     0.88610
C762        C  0.43398992  0.66036688  0.11104516     0.88780
O763        O  0.63202245  0.42289269  0.14249459    -0.73530
O764        O  0.66366409  0.36954480  0.09975227    -0.73560
O765        O  0.66416681  0.42265096  0.10036315    -0.73620
O766        O  0.63231956  0.36969192  0.14167563    -0.73670
O767        O  0.59718732  0.37070338  0.11617764    -0.73600
O768        O  0.62917862  0.42393517  0.07445254    -0.73580
O769        O  0.62868011  0.37056456  0.07398116    -0.73550
O770        O  0.59716369  0.42369699  0.11658109    -0.73620
Ni771      Ni  0.64927054  0.39622881  0.12197597     1.25410
Ni772      Ni  0.61181563  0.39726593  0.09434713     1.25360
C773        C  0.60923823  0.43200262  0.13667320     0.88650
C774        C  0.65120845  0.36106115  0.07993994     0.88580
C775        C  0.65195486  0.43211558  0.08081052     0.88610
C776        C  0.60970637  0.36110385  0.13557729     0.88780
O777        O  0.63289601  0.60056091  0.91081355    -0.73530
O778        O  0.59202760  0.63951276  0.86179863    -0.73560
O779        O  0.63196964  0.60460045  0.85860741    -0.73620
O780        O  0.59312079  0.63584202  0.91419373    -0.73670
O781        O  0.62234085  0.66768367  0.91641420    -0.73600
O782        O  0.66064535  0.63683363  0.86017069    -0.73580
O783        O  0.62073323  0.67214609  0.86393461    -0.73550
O784        O  0.66202338  0.63261957  0.91274678    -0.73620
Ni785      Ni  0.61151551  0.61899125  0.88625647     1.25410
Ni786      Ni  0.64248858  0.65348031  0.88828348     1.25360
C787        C  0.65388556  0.61018498  0.92031938     0.88650
C788        C  0.59947746  0.66238238  0.85512016     0.88580
C789        C  0.65289886  0.61536106  0.85012492     0.88610
C790        C  0.60132940  0.65690730  0.92475368     0.88780
O791        O  0.82822327  0.59346463  0.12419948    -0.73530
O792        O  0.88301986  0.62809023  0.16140781    -0.73560
O793        O  0.83020022  0.62837320  0.16358736    -0.73620
O794        O  0.88128804  0.59310932  0.12316997    -0.73670
O795        O  0.88030250  0.62463893  0.09354843    -0.73600
O796        O  0.83027495  0.66168091  0.13543571    -0.73580
O797        O  0.88301917  0.66013106  0.13200849    -0.73550
O798        O  0.82707841  0.62669154  0.09607122    -0.73620
Ni799      Ni  0.85562922  0.60957550  0.14407346     1.25410
Ni800      Ni  0.85506628  0.64442363  0.11316796     1.25360
C801        C  0.81855434  0.60457628  0.10398767     0.88650
C802        C  0.89214874  0.64975037  0.15272135     0.88580
C803        C  0.82228308  0.65101731  0.15652439     0.88610
C804        C  0.88988189  0.60302703  0.10209813     0.88780
O805        O  0.60461724  0.82481163  0.12450864    -0.73530
O806        O  0.64052085  0.88168565  0.15656171    -0.73560
O807        O  0.60203705  0.87760522  0.12128229    -0.73620
O808        O  0.64267006  0.82892533  0.16069781    -0.73670
O809        O  0.67309060  0.82787834  0.12969706    -0.73600
O810        O  0.63135178  0.87596783  0.08911879    -0.73580
O811        O  0.66948999  0.88083408  0.12443259    -0.73550
O812        O  0.63492271  0.82354433  0.09339025    -0.73620
Ni813      Ni  0.62142236  0.85322995  0.14190484     1.25410
Ni814      Ni  0.65337694  0.85196157  0.10810972     1.25360
C815        C  0.61371288  0.81505272  0.10340884     0.88650
C816        C  0.66059321  0.89131380  0.14513447     0.88580
C817        C  0.60992259  0.88480701  0.09885661     0.88610
C818        C  0.66450790  0.82028365  0.15191281     0.88780
O819        O  0.76635656  0.54439709  0.69171047    -0.80000
O820        O  0.73243444  0.45796419  0.77348414    -0.64690
O821        O  0.73611766  0.51851131  0.72926478    -1.11290
C822        C  0.79275881  0.54685062  0.79699906     1.06890
O823        O  0.72351968  0.48734643  0.80242728    -0.77890
O824        O  0.73349420  0.53659279  0.80738800    -0.65480
Ni825      Ni  0.74061457  0.51693166  0.69301054     1.34870
C826        C  0.72485993  0.55267750  0.79079393     0.85630
O827        O  0.70903010  0.47059245  0.72931457    -0.78430
O828        O  0.71549258  0.48896334  0.69018009    -0.88710
C829        C  0.72220477  0.46395288  0.79522722     0.85200
O830        O  0.76842114  0.49244283  0.69390744    -0.66910
O831        O  0.78549527  0.52669909  0.80959021    -0.86200
C832        C  0.77219349  0.47200548  0.70737967     0.86030
C833        C  0.70540798  0.47168254  0.70502158     1.07600
H834        H  0.77758914  0.49567860  0.76680101     0.39400
O835        O  0.76095538  0.50445534  0.76936299    -1.08860
O836        O  0.73280376  0.55334315  0.76752256    -0.65510
Ni837      Ni  0.76151031  0.53601368  0.75023682     1.26350
O838        O  0.76151054  0.46800724  0.72957753    -0.65740
O839        O  0.78561981  0.55241030  0.77378658    -0.78030
C840        C  0.77074843  0.56474830  0.70511135     0.85410
O841        O  0.76321813  0.56630696  0.72852520    -0.65210
Ni842      Ni  0.75500619  0.50623308  0.80533682     1.27450
Ni843      Ni  0.73499993  0.48710482  0.74961603     1.26060
H844        H  0.71931158  0.52699937  0.73160907     0.39960
O845        O  0.99181801  0.04438191  0.55276877    -0.80000
O846        O  0.01742219  0.95769356  0.47495272    -0.64690
O847        O  0.01904345  0.02093768  0.51253433    -1.11290
C848        C  0.95225549  0.04586960  0.45224970     1.06890
O849        O  0.02071690  0.98043715  0.43835204    -0.77890
O850        O  0.01461487  0.03240528  0.43470435    -0.65480
Ni851      Ni  0.02162627  0.02210380  0.54910146     1.34870
C852        C  0.02207108  0.05128738  0.44870448     0.85630
O853        O  0.04567036  0.97267512  0.51524332    -0.78430
O854        O  0.05136663  0.99909300  0.54900555    -0.88710
C855        C  0.02661889  0.96070535  0.45229039     0.85200
O856        O  0.99896469  0.99374298  0.55602155    -0.66910
O857        O  0.96173186  0.02758487  0.43820456    -0.86200
C858        C  0.98799852  0.97565394  0.54336620     0.86030
C859        C  0.05745647  0.97876995  0.53606892     1.07600
H860        H  0.97383608  0.99549351  0.48110994     0.39400
O861        O  0.98993654  0.00419790  0.47649049    -1.08860
O862        O  0.01445670  0.05463909  0.47201750    -0.65510
Ni863      Ni  0.98995237  0.03638798  0.49441017     1.26350
O864        O  0.99235880  0.97216417  0.51915076    -0.65740
O865        O  0.96112209  0.05086337  0.47487257    -0.78030
C866        C  0.98197939  0.06254846  0.53907167     0.85410
O867        O  0.98891480  0.06648607  0.51578505    -0.65210
Ni868      Ni  0.99113407  0.00397342  0.43976528     1.27450
Ni869      Ni  0.01776625  0.98820524  0.49557646     1.26060
H870        H  0.03483999  0.02925284  0.50642931     0.39960
C871        C  0.51198004  0.06118333  0.70637084     0.04020
C872        C  0.51817019  0.03727252  0.69474590    -0.12130
C873        C  0.54136710  0.02394392  0.70115832     0.01520
C874        C  0.55660204  0.03330702  0.72175465    -0.10650
C875        C  0.54944385  0.05610346  0.73513420     0.04020
C876        C  0.52745777  0.07050939  0.72675166    -0.10070
H877        H  0.50572402  0.03000964  0.67941690     0.09610
H878        H  0.57446576  0.02313707  0.72714230     0.07140
H879        H  0.52266127  0.08906260  0.73573047     0.06990
C880        C  0.74400603  0.05858295  0.53727452     0.04020
C881        C  0.72789689  0.03985922  0.54899218    -0.12130
C882        C  0.70655619  0.02928834  0.53556367     0.01520
C883        C  0.70054724  0.03893682  0.51065945    -0.10650
C884        C  0.71635403  0.05796852  0.49859248     0.04020
C885        C  0.73894254  0.06646856  0.51168518    -0.10070
H886        H  0.73187985  0.03365400  0.56872190     0.09610
H887        H  0.68323349  0.03189660  0.50089867     0.07140
H888        H  0.75194261  0.08039425  0.50253584     0.06990
C889        C  0.55668967  0.20154616  0.50156538     0.04020
C890        C  0.56823241  0.22480476  0.51051875    -0.12130
C891        C  0.56052167  0.23623221  0.53424932     0.01520
C892        C  0.53923306  0.22493748  0.54765510    -0.10650
C893        C  0.52563964  0.20340355  0.53764846     0.04020
C894        C  0.53484860  0.19146556  0.51479340    -0.10070
H895        H  0.58378817  0.23336296  0.49912292     0.09610
H896        H  0.53332035  0.23261812  0.56633403     0.07140
H897        H  0.52554956  0.17388210  0.50778697     0.06990
O898        O  0.64766492  0.09737446  0.40094971    -0.73530
O899        O  0.60238020  0.13403005  0.35314449    -0.73560
O900        O  0.64414369  0.10118835  0.34855326    -0.73620
O901        O  0.60535242  0.12986936  0.40566388    -0.73670
O902        O  0.63305190  0.16330729  0.40737744    -0.73600
O903        O  0.67013931  0.13573637  0.34787209    -0.73580
O904        O  0.62878415  0.16856136  0.35497633    -0.73550
O905        O  0.67504407  0.13094169  0.40017014    -0.73620
Ni906      Ni  0.62396583  0.11439065  0.37702187     1.25410
Ni907      Ni  0.65272352  0.15083339  0.37761139     1.25360
C908        C  0.66895591  0.10818053  0.40852836     0.88650
C909        C  0.60802047  0.15756279  0.34663456     0.88580
C910        C  0.66330839  0.11363397  0.33838500     0.88610
C911        C  0.61279790  0.15125585  0.41609208     0.88780
O912        O  0.42531715  0.10510881  0.62655750    -0.73530
O913        O  0.37490838  0.14106963  0.58317314    -0.73560
O914        O  0.42802651  0.14002629  0.58722986    -0.73620
O915        O  0.37252133  0.10485595  0.62118195    -0.73670
O916        O  0.37018375  0.13569625  0.65137973    -0.73600
O917        O  0.42569957  0.17285887  0.61542602    -0.73580
O918        O  0.37190526  0.17231710  0.61314002    -0.73550
O919        O  0.42315780  0.13793426  0.65490948    -0.73620
Ni920      Ni  0.40025736  0.12166547  0.60351480     1.25410
Ni921      Ni  0.39756899  0.15593315  0.63471586     1.25360
C922        C  0.43260728  0.11596465  0.64778229     0.88650
C923        C  0.36497363  0.16263794  0.59144566     0.88580
C924        C  0.43663100  0.16171532  0.59575168     0.88610
C925        C  0.36242326  0.11376063  0.64200545     0.88780
C926        C  0.71535013  0.24395723  0.71240876     0.04020
C927        C  0.74095189  0.23851667  0.70450746    -0.12130
C928        C  0.75288613  0.21482202  0.71162790     0.01520
C929        C  0.74126971  0.20004168  0.73170738    -0.10650
C930        C  0.71630420  0.20677966  0.74153851     0.04020
C931        C  0.70291164  0.22787283  0.73028331    -0.10070
H932        H  0.75021443  0.25130158  0.69049664     0.09610
H933        H  0.75107610  0.18268681  0.73881665     0.07140
H934        H  0.68254038  0.23163884  0.73508932     0.06990
O935        O  0.63642927  0.32568697  0.58842244    -0.73530
O936        O  0.66756072  0.37933865  0.62910755    -0.73560
O937        O  0.66969127  0.32640943  0.62962516    -0.73620
O938        O  0.63393579  0.37811169  0.58904417    -0.73670
O939        O  0.59962944  0.37458039  0.61556932    -0.73600
O940        O  0.63643381  0.32662506  0.65788806    -0.73580
O941        O  0.63291296  0.37938722  0.65561246    -0.73550
O942        O  0.60362390  0.32257408  0.61672268    -0.73620
Ni943      Ni  0.65320257  0.35234630  0.60809825     1.25410
Ni944      Ni  0.61699551  0.35068047  0.63748112     1.25360
C945        C  0.61456036  0.31572063  0.59531790     0.88650
C946        C  0.65513943  0.38866636  0.64858272     0.88580
C947        C  0.65895508  0.31849633  0.65071335     0.88610
C948        C  0.61058638  0.38458395  0.59570191     0.88780
O949        O  0.61612505  0.93852044  0.64861629    -0.73530
O950        O  0.66016869  0.89066233  0.61241570    -0.73560
O951        O  0.65441119  0.94289719  0.61208179    -0.73620
O952        O  0.62207529  0.88597355  0.64812456    -0.73670
O953        O  0.59195662  0.88308829  0.61692570    -0.73600
O954        O  0.62434584  0.94032893  0.58090576    -0.73580
O955        O  0.63013220  0.88770208  0.58124004    -0.73550
O956        O  0.58584228  0.93574486  0.61773931    -0.73620
Ni957      Ni  0.63918908  0.91472454  0.63143704     1.25410
Ni958      Ni  0.60695563  0.91173101  0.59806292     1.25360
C959        C  0.59354838  0.94465244  0.63961923     0.88650
C960        C  0.65228925  0.88106464  0.59101493     0.88580
C961        C  0.64532508  0.95035216  0.59008430     0.88610
C962        C  0.60201881  0.87494189  0.63820193     0.88780
O963        O  0.83682851  0.13578948  0.65516733    -0.73530
O964        O  0.88784406  0.10134298  0.61280525    -0.73560
O965        O  0.88962001  0.13520865  0.65205473    -0.73620
O966        O  0.83471792  0.10117778  0.61527790    -0.73670
O967        O  0.83345317  0.13436349  0.58706830    -0.73600
O968        O  0.88888149  0.16826734  0.62425181    -0.73580
O969        O  0.88640844  0.13432940  0.58449999    -0.73550
O970        O  0.83636504  0.16892699  0.62701177    -0.73620
Ni971      Ni  0.86220841  0.11716331  0.63480219     1.25410
Ni972      Ni  0.86111754  0.15262354  0.60467653     1.25360
C973        C  0.82863353  0.15846810  0.64822426     0.88650
C974        C  0.89601573  0.11248275  0.59205631     0.88580
C975        C  0.89862638  0.15722696  0.64442642     0.88610
C976        C  0.82523092  0.11204945  0.59493958     0.88780
O977        O  0.63714684  0.15626300  0.82786407    -0.73530
O978        O  0.59996519  0.11936031  0.88115492    -0.73560
O979        O  0.63563099  0.15795478  0.88029157    -0.73620
O980        O  0.60055968  0.11822435  0.82873396    -0.73670
O981        O  0.63250882  0.08827041  0.82933331    -0.73600
O982        O  0.66784634  0.12822323  0.88183983    -0.73580
O983        O  0.63216143  0.09006707  0.88218772    -0.73550
O984        O  0.66913658  0.12656782  0.82960244    -0.73620
Ni985      Ni  0.61718065  0.13899787  0.85439644     1.25410
Ni986      Ni  0.65149809  0.10714136  0.85571636     1.25360
C987        C  0.65960349  0.14773934  0.82028533     0.88650
C988        C  0.61040768  0.09876915  0.89105575     0.88580
C989        C  0.65725457  0.14957705  0.88970749     0.88610
C990        C  0.61055964  0.09684737  0.82044415     0.88780
C991        C  0.01732341  0.71704323  0.55910733     0.04020
C992        C  0.03161687  0.73906847  0.56679241    -0.12130
C993        C  0.05343883  0.74748693  0.55231820     0.01520
C994        C  0.06067343  0.73347489  0.53003971    -0.10650
C995        C  0.04732833  0.71072720  0.52296880     0.04020
C996        C  0.02543813  0.70271148  0.53733058    -0.10070
H997        H  0.02596483  0.74936508  0.58428017     0.09610
H998        H  0.07742069  0.73966034  0.51866588     0.07140
H999        H  0.01521142  0.68502541  0.53202108     0.06990
O1000       O  0.15626374  0.62209065  0.43538988    -0.73530
O1001       O  0.12221494  0.65731064  0.37998530    -0.73560
O1002       O  0.12043027  0.66046592  0.43238144    -0.73620
O1003       O  0.15736246  0.61797620  0.38285856    -0.73670
O1004       O  0.12525177  0.58878400  0.38368015    -0.73600
O1005       O  0.08850581  0.63086294  0.43354162    -0.73580
O1006       O  0.08962428  0.62876132  0.38112702    -0.73550
O1007       O  0.12486134  0.59220497  0.43671304    -0.73620
Ni1008     Ni  0.14018949  0.64042471  0.40754908     1.25410
Ni1009     Ni  0.10590707  0.60903315  0.40875064     1.25360
C1010       C  0.14619460  0.60180633  0.44575192     0.88650
C1011       C  0.10018448  0.64939690  0.37152467     0.88580
C1012       C  0.09850620  0.65228503  0.44135435     0.88610
C1013       C  0.14742687  0.59641960  0.37492319     0.88780
C1014       C  0.20327857  0.73964379  0.69958489     0.04020
C1015       C  0.19088456  0.72887451  0.72145392    -0.12130
C1016       C  0.20213583  0.70744252  0.73440767     0.01520
C1017       C  0.22620737  0.69732006  0.72597188    -0.10650
C1018       C  0.23801598  0.70647677  0.70307784     0.04020
C1019       C  0.22633435  0.72783615  0.68998738    -0.10070
H1020       H  0.17242797  0.73697141  0.72821973     0.09610
H1021       H  0.23499296  0.68116026  0.73655786     0.07140
H1022       H  0.23484501  0.73509643  0.67212847     0.06990
C1023       C  0.23670189  0.55464480  0.56477480     0.04020
C1024       C  0.22114091  0.56785297  0.54653586    -0.12130
C1025       C  0.19894333  0.55594867  0.53581659     0.01520
C1026       C  0.19087850  0.53182921  0.54589932    -0.10650
C1027       C  0.20561496  0.51855804  0.56492916     0.04020
C1028       C  0.22936468  0.52962947  0.57322634    -0.10070
H1029       H  0.22681783  0.58722245  0.54016364     0.09610
H1030       H  0.17302647  0.52325046  0.53872149     0.07140
H1031       H  0.24174613  0.51928189  0.58691994     0.06990
O1032       O  0.33674231  0.62902933  0.66922369    -0.73530
O1033       O  0.38907478  0.58950292  0.63246707    -0.73560
O1034       O  0.39007711  0.62496968  0.67110882    -0.73620
O1035       O  0.33578308  0.59310167  0.63083762    -0.73670
O1036       O  0.33836823  0.62511428  0.60144533    -0.73600
O1037       O  0.39296390  0.65689787  0.64165543    -0.73580
O1038       O  0.39162893  0.62119919  0.60291112    -0.73550
O1039       O  0.33965047  0.66074029  0.63971067    -0.73620
Ni1040     Ni  0.36282706  0.60801511  0.65195458     1.25410
Ni1041     Ni  0.36584359  0.64212812  0.62041375     1.25360
C1042       C  0.32902065  0.65116182  0.66012405     0.88650
C1043       C  0.39906840  0.59885704  0.61159565     0.88580
C1044       C  0.40059699  0.64605920  0.66283447     0.88610
C1045       C  0.32778251  0.60408680  0.60990180     0.88780
C1046       C  0.03617507  0.51914763  0.69906000     0.04020
C1047       C  0.04605108  0.52812321  0.72301580    -0.12130
C1048       C  0.03567733  0.55052930  0.73509738     0.01520
C1049       C  0.01319237  0.56230419  0.72458068    -0.10650
C1050       C  0.00245338  0.55370385  0.70114710     0.04020
C1051       C  0.01421344  0.53223132  0.68839239    -0.10070
H1052       H  0.06293221  0.51854655  0.73156858     0.09610
H1053       H  0.00490419  0.57940322  0.73395423     0.07140
H1054       H  0.00673473  0.52637222  0.66970658     0.06990
O1055       O  0.13211079  0.42026765  0.59917238    -0.73530
O1056       O  0.08828709  0.36827022  0.62994951    -0.73560
O1057       O  0.08813742  0.42169748  0.62837336    -0.73620
O1058       O  0.13336280  0.36731217  0.60077350    -0.73670
O1059       O  0.15693674  0.36758198  0.63709595    -0.73600
O1060       O  0.11303802  0.42277362  0.66368597    -0.73580
O1061       O  0.11206115  0.36966414  0.66617685    -0.73550
O1062       O  0.15705839  0.42060727  0.63428754    -0.73620
Ni1063     Ni  0.10959480  0.39417771  0.61331315     1.25410
Ni1064     Ni  0.13559535  0.39508415  0.65158796     1.25360
C1065       C  0.15177371  0.42929762  0.61150008     0.88650
C1066       C  0.09244799  0.36102729  0.65336585     0.88580
C1067       C  0.09382104  0.43191701  0.65037221     0.88610
C1068       C  0.15298501  0.35898920  0.61416132     0.88780
O1069       O  0.91680973  0.65691024  0.60235388    -0.73530
O1070       O  0.85908466  0.62081047  0.63460195    -0.73560
O1071       O  0.86364265  0.66089397  0.60118464    -0.73620
O1072       O  0.91188711  0.61546620  0.63467876    -0.73670
O1073       O  0.91373079  0.64215290  0.66867010    -0.73600
O1074       O  0.86545005  0.68946535  0.63366839    -0.73580
O1075       O  0.86048640  0.64906057  0.66717751    -0.73550
O1076       O  0.91875161  0.68393891  0.63614088    -0.73620
Ni1077     Ni  0.88778815  0.63759500  0.61705283     1.25410
Ni1078     Ni  0.88965714  0.66711676  0.65268721     1.25360
C1079       C  0.92744558  0.67620739  0.61419472     0.88650
C1080       C  0.84992812  0.62942081  0.65618626     0.88580
C1081       C  0.85675187  0.68259293  0.61134160     0.88610
C1082       C  0.92110713  0.62115941  0.65689278     0.88780
O1083       O  0.13735230  0.83942630  0.58586564    -0.73530
O1084       O  0.17762958  0.89045984  0.62269538    -0.73560
O1085       O  0.17237827  0.83757350  0.62525875    -0.73620
O1086       O  0.14269654  0.89197382  0.58310312    -0.73670
O1087       O  0.11016518  0.89679774  0.61178314    -0.73600
O1088       O  0.13934166  0.84181050  0.65340643    -0.73580
O1089       O  0.14480286  0.89475788  0.65092262    -0.73550
O1090       O  0.10460253  0.84434151  0.61415424    -0.73620
Ni1091     Ni  0.15871353  0.86472782  0.60321137     1.25410
Ni1092     Ni  0.12361660  0.86964420  0.63359792     1.25360
C1093       C  0.11442791  0.83334450  0.59408085     0.88650
C1094       C  0.16779760  0.90093171  0.64309798     0.88580
C1095       C  0.16042101  0.83034574  0.64591180     0.88610
C1096       C  0.12150258  0.90316975  0.59055903     0.88780
O1097       O  0.12551426  0.65985466  0.82293461    -0.73530
O1098       O  0.08951390  0.62526194  0.87906004    -0.73560
O1099       O  0.12729345  0.66148555  0.87550910    -0.73620
O1100       O  0.08624321  0.62426007  0.82637145    -0.73670
O1101       O  0.11636152  0.59257912  0.82448512    -0.73600
O1102       O  0.15671617  0.62899636  0.87595888    -0.73580
O1103       O  0.11860794  0.59302410  0.87694131    -0.73550
O1104       O  0.15585780  0.62820907  0.82321231    -0.73620
Ni1105     Ni  0.10604417  0.64383647  0.85089442     1.25410
Ni1106     Ni  0.13794148  0.60956173  0.85005392     1.25360
C1107       C  0.14695228  0.64982569  0.81426559     0.88650
C1108       C  0.09861842  0.60346954  0.88777489     0.88580
C1109       C  0.14829381  0.65113048  0.88435287     0.88610
C1110       C  0.09440232  0.60251100  0.81710464     0.88780
C1111       C  0.77109376  0.31847921  0.28066828     0.04020
C1112       C  0.78572455  0.32482931  0.25846522    -0.12130
C1113       C  0.80638262  0.30847129  0.25006816     0.01520
C1114       C  0.81217037  0.28569445  0.26424556    -0.10650
C1115       C  0.79841123  0.27987634  0.28705225     0.04020
C1116       C  0.77745563  0.29577530  0.29475443    -0.10070
H1117       H  0.78159619  0.34293951  0.24823825     0.09610
H1118       H  0.82818240  0.27305154  0.25826494     0.07140
H1119       H  0.76701365  0.29125494  0.31252512     0.06990
O1120       O  0.67667930  0.39761335  0.38826747    -0.73530
O1121       O  0.62461466  0.36282902  0.34712650    -0.73560
O1122       O  0.67790285  0.36508867  0.34721037    -0.73620
O1123       O  0.62381032  0.39348357  0.38883890    -0.73670
O1124       O  0.62075399  0.42837357  0.36289371    -0.73600
O1125       O  0.67608184  0.39926342  0.32024088    -0.73580
O1126       O  0.62219530  0.39748549  0.32093699    -0.73550
O1127       O  0.67440744  0.43202241  0.36162140    -0.73620
Ni1128     Ni  0.65091566  0.37853154  0.36868458     1.25410
Ni1129     Ni  0.64835260  0.41556067  0.34040781     1.25360
C1130       C  0.68417084  0.42059306  0.38153104     0.88650
C1131       C  0.61370423  0.37515335  0.32818510     0.88580
C1132       C  0.68642799  0.37740605  0.32742585     0.88610
C1133       C  0.61291832  0.41507325  0.38263146     0.88780
C1134       C  0.79502939  0.46392058  0.48414360     0.04020
C1135       C  0.77709234  0.45093079  0.46759071    -0.12130
C1136       C  0.76719093  0.46317123  0.44508372     0.01520
C1137       C  0.77731998  0.48716131  0.43720384    -0.10650
C1138       C  0.79624459  0.49963353  0.45197642     0.04020
C1139       C  0.80336489  0.48916454  0.47627109    -0.10070
H1140       H  0.77087601  0.43119487  0.47175343     0.09610
H1141       H  0.77120240  0.49565679  0.41887030     0.07140
H1142       H  0.81616003  0.50061187  0.48832620     0.06990
C1143       C  0.95984443  0.48951095  0.29627884     0.04020
C1144       C  0.98169807  0.47709565  0.30738492    -0.12130
C1145       C  0.99362109  0.45551815  0.29523227     0.01520
C1146       C  0.98335193  0.44652327  0.27154753    -0.10650
C1147       C  0.96105535  0.45847110  0.26061075     0.04020
C1148       C  0.94953174  0.48006373  0.27296150    -0.10070
H1149       H  0.98898713  0.48383695  0.32590216     0.09610
H1150       H  0.99210155  0.42968676  0.26211988     0.07140
H1151       H  0.93217828  0.48915538  0.26472720     0.06990
C1152       C  0.98217005  0.31155114  0.45605452     0.04020
C1153       C  0.96980159  0.29027079  0.44413941    -0.12130
C1154       C  0.94716790  0.27925192  0.45500381     0.01520
C1155       C  0.93704542  0.28934142  0.47813035    -0.10650
C1156       C  0.94846214  0.31099264  0.48993510     0.04020
C1157       C  0.97115089  0.32212247  0.47890201    -0.10070
H1158       H  0.97747955  0.28265483  0.42604632     0.09610
H1159       H  0.91942101  0.28098153  0.48640752     0.07140
H1160       H  0.97998497  0.33901279  0.48788841     0.06990
O1161       O  0.08521794  0.41143809  0.37300904    -0.73530
O1162       O  0.13543573  0.37274551  0.41364002    -0.73560
O1163       O  0.13823565  0.40964866  0.37596734    -0.73620
O1164       O  0.08233921  0.37532164  0.41110487    -0.73670
O1165       O  0.08277610  0.34326960  0.38187567    -0.73600
O1166       O  0.13902790  0.37824430  0.34619499    -0.73580
O1167       O  0.13617175  0.34138520  0.38365745    -0.73550
O1168       O  0.08566483  0.37954330  0.34364006    -0.73620
Ni1169     Ni  0.11035039  0.39338498  0.39448133     1.25410
Ni1170     Ni  0.11096669  0.35948949  0.36275125     1.25360
C1171       C  0.07680701  0.40150584  0.35181162     0.88650
C1172       C  0.14396546  0.35065758  0.40526961     0.88580
C1173       C  0.14799280  0.39971819  0.35536467     0.88610
C1174       C  0.07296334  0.35405796  0.40217466     0.88780
O1175       O  0.86729044  0.34632038  0.58210245    -0.73530
O1176       O  0.82609184  0.38069722  0.63443407    -0.73560
O1177       O  0.82962520  0.38429608  0.58158935    -0.73620
O1178       O  0.86371619  0.34280859  0.63472734    -0.73670
O1179       O  0.89500883  0.37289180  0.63756536    -0.73600
O1180       O  0.85939625  0.41512196  0.58678398    -0.73580
O1181       O  0.85738806  0.41048240  0.63935271    -0.73550
O1182       O  0.89720900  0.37774928  0.58516286    -0.73620
Ni1183     Ni  0.84554996  0.36243631  0.60813557     1.25410
Ni1184     Ni  0.87830846  0.39511246  0.61240372     1.25360
C1185       C  0.88886808  0.35669423  0.57475085     0.88650
C1186       C  0.83493339  0.40127752  0.64542610     0.88580
C1187       C  0.83901018  0.40664045  0.57506117     0.88610
C1188       C  0.88526837  0.35091431  0.64450970     0.88780
O1189       O  0.88819130  0.41943725  0.16263849    -0.73530
O1190       O  0.85597604  0.37982976  0.10829448    -0.73560
O1191       O  0.85513103  0.37833682  0.16049434    -0.73620
O1192       O  0.88863580  0.42103942  0.10962691    -0.73670
O1193       O  0.92244504  0.39367102  0.10919841    -0.73600
O1194       O  0.88930521  0.35092049  0.16062515    -0.73580
O1195       O  0.88996070  0.35210106  0.10852578    -0.73550
O1196       O  0.92248180  0.39213111  0.16189435    -0.73620
Ni1197     Ni  0.87082968  0.40071813  0.13529254     1.25410
Ni1198     Ni  0.90734505  0.37132825  0.13504448     1.25360
C1199       C  0.91050432  0.41194382  0.17145542     0.88650
C1200       C  0.86749452  0.35915273  0.09996212     0.88580
C1201       C  0.86637156  0.35741006  0.16859083     0.88610
C1202       C  0.91083433  0.41411406  0.10025650     0.88780
O1203       O  0.87749807  0.58507453  0.40608200    -0.73530
O1204       O  0.91873943  0.63695889  0.37321428    -0.73560
O1205       O  0.87807512  0.63769876  0.40623265    -0.73620
O1206       O  0.91755060  0.58398660  0.37152754    -0.73670
O1207       O  0.88856789  0.58529774  0.33918333    -0.73600
O1208       O  0.85041401  0.63947435  0.37294591    -0.73580
O1209       O  0.89178454  0.63845097  0.33953290    -0.73550
O1210       O  0.84839750  0.58689817  0.37388378    -0.73620
Ni1211     Ni  0.89899002  0.61087635  0.39037075     1.25410
Ni1212     Ni  0.86882357  0.61260438  0.35512311     1.25360
C1213       C  0.85604126  0.57770115  0.39587513     0.88650
C1214       C  0.91258926  0.64638729  0.35111447     0.88580
C1215       C  0.85743895  0.64712712  0.39537406     0.88610
C1216       C  0.90906783  0.57555834  0.34970656     0.88780
O1217       O  0.86929895  0.18909391  0.40920066    -0.73530
O1218       O  0.83510156  0.13641276  0.36980392    -0.73560
O1219       O  0.86949315  0.13607838  0.40915120    -0.73620
O1220       O  0.83427447  0.18922357  0.36987877    -0.73670
O1221       O  0.86768471  0.19007525  0.34187231    -0.73600
O1222       O  0.90176317  0.13528617  0.37991060    -0.73580
O1223       O  0.86702621  0.13730208  0.34071085    -0.73550
O1224       O  0.90257478  0.18821784  0.38103943    -0.73620
Ni1225     Ni  0.85086621  0.16273746  0.39054449     1.25410
Ni1226     Ni  0.88595477  0.16275332  0.35988195     1.25360
C1227       C  0.89169649  0.19724032  0.40154457     0.88650
C1228       C  0.84527072  0.12796602  0.34869730     0.88580
C1229       C  0.89107716  0.12648559  0.40065069     0.88610
C1230       C  0.84528555  0.19845329  0.34953541     0.88780
O1231       O  0.01710789  0.31719043  0.77827860    -0.80000
O1232       O  0.98785236  0.23089454  0.70078196    -0.64690
O1233       O  0.99001701  0.27328336  0.76118370    -1.11290
C1234       C  0.05681652  0.21563352  0.78994287     1.06890
O1235       O  0.99224098  0.19431259  0.72329978    -0.77890
O1236       O  0.98993710  0.20072430  0.77430945    -0.65480
Ni1237     Ni  0.98545016  0.31015966  0.75959856     1.34870
C1238       C  0.98678063  0.21500561  0.79413338     0.85630
O1239       O  0.96046607  0.27237240  0.71442134    -0.78430
O1240       O  0.95360328  0.30729530  0.73971578    -0.88710
C1241       C  0.98254161  0.20690352  0.70435040     0.85200
O1242       O  0.00522472  0.31505956  0.72895058    -0.66910
O1243       O  0.04299882  0.19956053  0.77725573    -0.86200
C1244       C  0.01628701  0.30092645  0.71193552     0.86030
C1245       C  0.94861373  0.29374455  0.71963809     1.07600
H1246       H  0.03435270  0.23929865  0.73467952     0.39400
O1247       O  0.01904491  0.23596510  0.74521611    -1.08860
O1248       O  0.99963630  0.23601212  0.79790106    -0.65510
Ni1249     Ni  0.02139955  0.25748813  0.77525760     1.26350
O1250       O  0.01325225  0.27615623  0.71114202    -0.65740
O1251       O  0.05258496  0.24026246  0.78861982    -0.78030
C1252       C  0.02917721  0.30564434  0.79655372     0.85410
O1253       O  0.02432823  0.28212250  0.80275895    -0.65210
Ni1254     Ni  0.01766229  0.19924513  0.74995857     1.27450
Ni1255     Ni  0.98932975  0.25356821  0.72996476     1.26060
H1256       H  0.97531497  0.26726905  0.77135046     0.39960
C1257       C  0.06062275  0.25146712  0.04560515     0.04020
C1258       C  0.03784725  0.23885476  0.05465521    -0.12130
C1259       C  0.02991810  0.21514196  0.04349389     0.01520
C1260       C  0.04380699  0.20481515  0.02250577    -0.10650
C1261       C  0.06598596  0.21752353  0.01304664     0.04020
C1262       C  0.07436881  0.24056195  0.02466964    -0.10070
H1263       H  0.02709536  0.24665275  0.07105250     0.09610
H1264       H  0.03812599  0.18616816  0.01438579     0.07140
H1265       H  0.09241693  0.24940687  0.01797999     0.06990
O1266       O  0.14197269  0.34045515  0.08498246    -0.73530
O1267       O  0.18444067  0.39024232  0.12087860    -0.73560
O1268       O  0.17949739  0.33723381  0.12174385    -0.73620
O1269       O  0.14705422  0.39328496  0.08334294    -0.73670
O1270       O  0.11601575  0.39685116  0.11368872    -0.73600
O1271       O  0.14938043  0.34139799  0.15288699    -0.73580
O1272       O  0.15344670  0.39433354  0.15117475    -0.73550
O1273       O  0.11171034  0.34413000  0.11602630    -0.73620
Ni1274     Ni  0.16435924  0.36528186  0.10165010     1.25410
Ni1275     Ni  0.13156442  0.36939781  0.13452217     1.25360
C1276       C  0.11998065  0.33375978  0.09498264     0.88650
C1277       C  0.17607289  0.40008662  0.14222875     0.88580
C1278       C  0.16962178  0.32978862  0.14339072     0.88610
C1279       C  0.12594664  0.40388896  0.09188634     0.88780
C1280       C  0.06287855  0.04262437  0.23770282     0.04020
C1281       C  0.07407195  0.01978694  0.22736301    -0.12130
C1282       C  0.06399259  0.00911431  0.20438456     0.01520
C1283       C  0.04343948  0.02207872  0.19147137    -0.10650
C1284       C  0.03204654  0.04474611  0.20198703     0.04020
C1285       C  0.04125177  0.05419480  0.22566766    -0.10070
H1286       H  0.09077131  0.01072240  0.23682667     0.09610
H1287       H  0.03671978  0.01477220  0.17295851     0.07140
H1288       H  0.03257154  0.07165511  0.23402895     0.06990
C1289       C  0.24272771  0.20041301  0.19988117     0.04020
C1290       C  0.23376237  0.22312311  0.18690210    -0.12130
C1291       C  0.21336828  0.23860598  0.19736065     0.01520
C1292       C  0.20156675  0.23081770  0.22081329    -0.10650
C1293       C  0.20938229  0.20760286  0.23350301     0.04020
C1294       C  0.23044936  0.19311300  0.22324674    -0.10070
H1295       H  0.24247939  0.22867583  0.16853908     0.09610
H1296       H  0.18555163  0.24235733  0.22867444     0.07140
H1297       H  0.23684332  0.17550205  0.23316880     0.06990
O1298       O  0.15968629  0.13967144  0.33120688    -0.73530
O1299       O  0.11617432  0.10560679  0.38274641    -0.73560
O1300       O  0.12437200  0.10035950  0.33116963    -0.73620
O1301       O  0.15263873  0.14408189  0.38334969    -0.73670
O1302       O  0.12146400  0.17415275  0.37644587    -0.73600
O1303       O  0.09224516  0.12936052  0.32409712    -0.73580
O1304       O  0.08530444  0.13572220  0.37586606    -0.73550
O1305       O  0.12772802  0.16872906  0.32447509    -0.73620
Ni1306     Ni  0.13938408  0.12144199  0.35743766     1.25410
Ni1307     Ni  0.10556882  0.15304875  0.34997704     1.25360
C1308       C  0.15048216  0.15967274  0.31893421     0.88650
C1309       C  0.09316510  0.11494720  0.38740499     0.88580
C1310       C  0.10373376  0.10750671  0.31911273     0.88610
C1311       C  0.14193619  0.16608225  0.38851909     0.88780
C1312       C  0.24632046  0.03420733  0.05534828     0.04020
C1313       C  0.23724972  0.04878962  0.03384300    -0.12130
C1314       C  0.21298251  0.04328536  0.02183470     0.01520
C1315       C  0.19809876  0.02229190  0.03199496    -0.10650
C1316       C  0.20796239  0.00612258  0.05197894     0.04020
C1317       C  0.23216028  0.01211941  0.06313201    -0.10070
H1318       H  0.24910348  0.06469299  0.02672285     0.09610
H1319       H  0.17885375  0.01826022  0.02426650     0.07140
H1320       H  0.23958508  0.99991230  0.07872415     0.06990
O1321       O  0.34017932  0.09992419  0.10394883    -0.73530
O1322       O  0.39131071  0.14147037  0.13805050    -0.73560
O1323       O  0.39307122  0.10048294  0.10579361    -0.73620
O1324       O  0.33813953  0.14171079  0.13668908    -0.73670
O1325       O  0.33641408  0.11411298  0.17012253    -0.73600
O1326       O  0.39360826  0.07416196  0.14016883    -0.73580
O1327       O  0.38995543  0.11575581  0.17270639    -0.73550
O1328       O  0.34009725  0.07209896  0.13722108    -0.73620
Ni1329     Ni  0.36561584  0.12181609  0.12000270     1.25410
Ni1330     Ni  0.36491901  0.09301630  0.15630063     1.25360
C1331       C  0.33207995  0.07877557  0.11452550     0.88650
C1332       C  0.39932199  0.13575408  0.16087201     0.88580
C1333       C  0.40296865  0.08093418  0.11801425     0.88610
C1334       C  0.32816668  0.13487803  0.15852080     0.88780
O1335       O  0.11358682  0.14081797  0.92789491    -0.73530
O1336       O  0.14526889  0.10019319  0.87449819    -0.73560
O1337       O  0.14739441  0.09969627  0.92712228    -0.73620
O1338       O  0.11156058  0.14098146  0.87589581    -0.73670
O1339       O  0.14467614  0.16915620  0.87474011    -0.73600
O1340       O  0.18134129  0.12664310  0.92553549    -0.73580
O1341       O  0.17864161  0.12816784  0.87253831    -0.73550
O1342       O  0.14747568  0.16819912  0.92721436    -0.73620
Ni1343     Ni  0.12835041  0.11942296  0.90145178     1.25410
Ni1344     Ni  0.16432772  0.14899999  0.90002079     1.25360
C1345       C  0.12497053  0.16147566  0.93584816     0.88650
C1346       C  0.16676416  0.10787010  0.86432791     0.88580
C1347       C  0.17028818  0.10613917  0.93494107     0.88610
C1348       C  0.12205459  0.16178540  0.86681257     0.88780
O1349       O  0.12585719  0.90757267  0.15778441    -0.73530
O1350       O  0.15780393  0.85423500  0.11722584    -0.73560
O1351       O  0.16201057  0.90711345  0.11950654    -0.73620
O1352       O  0.12016439  0.85484234  0.15499145    -0.73670
O1353       O  0.09015200  0.85921813  0.12426907    -0.73600
O1354       O  0.13019715  0.91189692  0.09025956    -0.73580
O1355       O  0.12729433  0.85875832  0.08689698    -0.73550
O1356       O  0.09402317  0.91206711  0.12848533    -0.73620
Ni1357     Ni  0.14257968  0.88065784  0.13842063     1.25410
Ni1358     Ni  0.10931886  0.88556878  0.10642426     1.25360
C1359       C  0.10512847  0.91902560  0.14967880     0.88650
C1360       C  0.14826076  0.84762701  0.09534183     0.88580
C1361       C  0.15239299  0.91862989  0.09940373     0.88610
C1362       C  0.09773206  0.84867353  0.14548140     0.88780
O1363       O  0.94379080  0.12541058  0.15455636    -0.73530
O1364       O  0.89095595  0.16148035  0.11580068    -0.73560
O1365       O  0.89063917  0.12605566  0.15448555    -0.73620
O1366       O  0.94403003  0.16116460  0.11553195    -0.73670
O1367       O  0.94319576  0.12970501  0.08565329    -0.73600
O1368       O  0.89212905  0.09349825  0.12640852    -0.73580
O1369       O  0.89005718  0.12849426  0.08787503    -0.73550
O1370       O  0.94485069  0.09406336  0.12462362    -0.73620
Ni1371     Ni  0.91746943  0.14470600  0.13613110     1.25410
Ni1372     Ni  0.91764779  0.11032725  0.10508165     1.25360
C1373       C  0.95281198  0.10364360  0.14604473     0.88650
C1374       C  0.88101882  0.15039036  0.09594614     0.88580
C1375       C  0.88208854  0.10395638  0.14668814     0.88610
C1376       C  0.95206609  0.15142667  0.09407332     0.88780
C1377       C  0.31265951  0.06259018  0.10001001    -0.04440
C1378       C  0.29075386  0.05172667  0.11268118    -0.01560
C1379       C  0.26863238  0.04410216  0.09824748     0.03430
C1380       C  0.26985284  0.04269623  0.07073491    -0.04440
C1381       C  0.29375229  0.04919548  0.05832641    -0.01550
C1382       C  0.31460908  0.05999550  0.07273719     0.03420
C1383       C  0.29145773  0.04656081  0.14029053     0.38080
C1384       C  0.29726993  0.04423822  0.03086186     0.38070
C1385       C  0.33876011  0.06704717  0.05962738     0.36490
C1386       C  0.24427107  0.03925743  0.11199485     0.36490
N1387       N  0.35810817  0.07252168  0.04925701    -0.38330
N1388       N  0.22484101  0.03554348  0.12298856    -0.38330
N1389       N  0.30015425  0.04023260  0.00896554    -0.37770
N1390       N  0.29234086  0.04096621  0.16203255    -0.37780
C1391       C  0.16646954  0.94074241  0.08672103    -0.04440
C1392       C  0.15443126  0.96573295  0.08515314    -0.01560
C1393       C  0.16778974  0.98699859  0.07369321     0.03430
C1394       C  0.19282796  0.98328038  0.06242141    -0.04440
C1395       C  0.20423032  0.95789904  0.06280495    -0.01550
C1396       C  0.19132124  0.93688913  0.07527217     0.03420
C1397       C  0.12834403  0.96979082  0.09573533     0.38080
C1398       C  0.22908320  0.95323178  0.04985678     0.38070
C1399       C  0.20317280  0.91102201  0.07548029     0.36490
C1400       C  0.15612558  0.01294039  0.07452090     0.36490
N1401       N  0.21253348  0.89034210  0.07560224    -0.38330
N1402       N  0.14683628  0.03363644  0.07523814    -0.38330
N1403       N  0.24889364  0.94955358  0.03948071    -0.37770
N1404       N  0.10748301  0.97313528  0.10398689    -0.37780
C1405       C  0.20319195  0.05936065  0.99878959    -0.04440
C1406       C  0.20655175  0.08695331  0.99752083    -0.01560
C1407       C  0.19931057  0.10125545  0.97500625     0.03430
C1408       C  0.18353026  0.08970721  0.95566765    -0.04440
C1409       C  0.17935895  0.06231969  0.95719483    -0.01550
C1410       C  0.19082926  0.04716224  0.97734719     0.03420
C1411       C  0.21598465  0.10135333  0.01977611     0.38080
C1412       C  0.16407587  0.04920473  0.93747909     0.38070
C1413       C  0.19074919  0.01887900  0.97510121     0.36490
C1414       C  0.20917051  0.12755493  0.97160261     0.36490
N1415       N  0.19071769  0.99633844  0.97315505    -0.38330
N1416       N  0.21796943  0.14815205  0.96861372    -0.38330
N1417       N  0.15185603  0.03866424  0.92184019    -0.37770
N1418       N  0.22337935  0.11300273  0.03748421    -0.37780
C1419       C  0.16575634  0.17248007  0.29746468    -0.04440
C1420       C  0.19315680  0.17623743  0.29939978    -0.01560
C1421       C  0.20705754  0.18915650  0.27933122     0.03430
C1422       C  0.19417945  0.19694034  0.25620040    -0.04440
C1423       C  0.16688231  0.19268879  0.25404698    -0.01550
C1424       C  0.15268670  0.18135577  0.27474602     0.03420
C1425       C  0.20716764  0.16734148  0.32226826     0.38080
C1426       C  0.15337844  0.19875016  0.22996925     0.38070
C1427       C  0.12463510  0.17768825  0.27182320     0.36490
C1428       C  0.23460651  0.19500148  0.28283997     0.36490
N1429       N  0.10230124  0.17477888  0.26938069    -0.38330
N1430       N  0.25656634  0.19970782  0.28566724    -0.38330
N1431       N  0.14261188  0.20355150  0.21078346    -0.37770
N1432       N  0.21841350  0.16025680  0.34048091    -0.37780
C1433       C  0.30673498  0.15146078  0.17025443    -0.04440
C1434       C  0.30968988  0.17888288  0.17254184    -0.01560
C1435       C  0.28907690  0.19476916  0.18234535     0.03430
C1436       C  0.26460043  0.18371284  0.18899700    -0.04440
C1437       C  0.26158615  0.15629636  0.18651634    -0.01550
C1438       C  0.28283215  0.14029936  0.17847650     0.03420
C1439       C  0.33455763  0.19086349  0.16645547     0.38080
C1440       C  0.23629802  0.14437078  0.19144663     0.38070
C1441       C  0.27988489  0.11224876  0.17938188     0.36490
C1442       C  0.29356151  0.22243783  0.18648681     0.36490
N1443       N  0.27684047  0.08996664  0.18123563    -0.38330
N1444       N  0.29718366  0.24449227  0.18978078    -0.38330
N1445       N  0.21616608  0.13483781  0.19539301    -0.37770
N1446       N  0.35418289  0.20113037  0.16207897    -0.37780
C1447       C  0.07521581  0.05683809  0.25933489    -0.04440
C1448       C  0.06456138  0.05528406  0.28451072    -0.01560
C1449       C  0.07397303  0.07175994  0.30422839     0.03430
C1450       C  0.09368277  0.09019570  0.29863875    -0.04440
C1451       C  0.10527515  0.09071640  0.27379247    -0.01550
C1452       C  0.09568645  0.07449230  0.25403659     0.03420
C1453       C  0.04372297  0.03690268  0.28996922     0.38080
C1454       C  0.12764403  0.10729976  0.26865757     0.38070
C1455       C  0.10619614  0.07678479  0.22797186     0.36490
C1456       C  0.06423648  0.06873550  0.33044835     0.36490
N1457       N  0.11450763  0.07902040  0.20719754    -0.38330
N1458       N  0.05652012  0.06544502  0.35129487    -0.38330
N1459       N  0.14586582  0.11991198  0.26427494    -0.37770
N1460       N  0.02707914  0.02224307  0.29426328    -0.37780
C1461       C  0.97252906  0.08891406  0.16123967    -0.04440
C1462       C  0.96931944  0.06179662  0.16544463    -0.01560
C1463       C  0.98842646  0.04744335  0.17919513     0.03430
C1464       C  0.01159540  0.05977764  0.18761944    -0.04440
C1465       C  0.01490565  0.08690165  0.18293932    -0.01550
C1466       C  0.99483369  0.10160717  0.17106655     0.03420
C1467       C  0.94572547  0.04878377  0.15667078     0.38080
C1468       C  0.03935071  0.09971013  0.18936920     0.38070
C1469       C  0.99743268  0.12977901  0.16873768     0.36490
C1470       C  0.98358648  0.02020528  0.18531337     0.36490
N1471       N  0.99949470  0.15224473  0.16702516    -0.38330
N1472       N  0.97916629  0.99853996  0.18998084    -0.38330
N1473       N  0.05876984  0.11006864  0.19440023    -0.37770
N1474       N  0.92695403  0.03839792  0.14967178    -0.37780
C1475       C  0.09483921  0.94144660  0.16476527    -0.04440
C1476       C  0.11124278  0.96305645  0.16969024    -0.01560
C1477       C  0.10142287  0.98500355  0.18310518     0.03430
C1478       C  0.07549140  0.98505748  0.19270508    -0.04440
C1479       C  0.05988711  0.96254036  0.18964340    -0.01550
C1480       C  0.06927855  0.94107278  0.17515363     0.03420
C1481       C  0.13817349  0.96304147  0.16050366     0.38080
C1482       C  0.03470233  0.96088575  0.20258431     0.38070
C1483       C  0.05301028  0.91819446  0.17187966     0.36490
C1484       C  0.11796987  0.00767129  0.18646108     0.36490
N1485       N  0.03991388  0.89999204  0.16947197    -0.38330
N1486       N  0.13153077  0.02550422  0.18902948    -0.38330
N1487       N  0.01486405  0.95912805  0.21333058    -0.37770
N1488       N  0.15969133  0.96309944  0.15336002    -0.37780
C1489       C  0.20314688  0.26225923  0.18310317    -0.04440
C1490       C  0.20463722  0.28745804  0.19429161    -0.01560
C1491       C  0.19350456  0.30948411  0.18153603     0.03430
C1492       C  0.18137567  0.30672311  0.15710140    -0.04440
C1493       C  0.18055244  0.28168729  0.14556059    -0.01550
C1494       C  0.19096990  0.25956425  0.15863964     0.03420
C1495       C  0.21823246  0.29083244  0.21869832     0.38080
C1496       C  0.16838675  0.27850839  0.12037403     0.38070
C1497       C  0.18828539  0.23382038  0.14726664     0.36490
C1498       C  0.19505761  0.33512668  0.19332235     0.36490
N1499       N  0.18609363  0.21326208  0.13825427    -0.38330
N1500       N  0.19631050  0.35556433  0.20278459    -0.38330
N1501       N  0.15880308  0.27586203  0.10024443    -0.37770
N1502       N  0.22919511  0.29349436  0.23812130    -0.37780
C1503       C  0.07242130  0.27436284  0.05912656    -0.04440
C1504       C  0.07807707  0.27318320  0.08598873    -0.01560
C1505       C  0.09295974  0.29301914  0.09772044     0.03430
C1506       C  0.10383135  0.31332889  0.08249384    -0.04440
C1507       C  0.09883349  0.31412221  0.05558673    -0.01550
C1508       C  0.08184344  0.29577848  0.04435704     0.03420
C1509       C  0.06994150  0.25095618  0.10154708     0.38080
C1510       C  0.11117790  0.33370045  0.03925960     0.38070
C1511       C  0.07393045  0.29910520  0.01750359     0.36490
C1512       C  0.09858782  0.29140358  0.12529278     0.36490
N1513       N  0.06760476  0.30178258  0.99611512    -0.38330
N1514       N  0.10310082  0.29007767  0.14724478    -0.38330
N1515       N  0.12107729  0.34920708  0.02617106    -0.37770
N1516       N  0.06350228  0.23336871  0.11416711    -0.37780
C1517       C  0.08198055  0.20523203  0.99250400    -0.04440
C1518       C  0.07121595  0.20118065  0.96769600    -0.01560
C1519       C  0.08571677  0.18750289  0.94885879     0.03430
C1520       C  0.11114342  0.17812079  0.95471712    -0.04440
C1521       C  0.12248311  0.18364593  0.97895957    -0.01550
C1522       C  0.10780573  0.19682362  0.99798817     0.03420
C1523       C  0.04529042  0.21124447  0.96152501     0.38080
C1524       C  0.14884792  0.17503996  0.98495305     0.38070
C1525       C  0.11894595  0.20069901  0.02359019     0.36490
C1526       C  0.07459714  0.18347350  0.92329346     0.36490
N1527       N  0.12783480  0.20384596  0.04396095    -0.38330
N1528       N  0.06566022  0.18034112  0.90294203    -0.38330
N1529       N  0.16985030  0.16870193  0.99060800    -0.37770
N1530       N  0.02462247  0.21928559  0.95663084    -0.37780
C1531       C  0.00970742  0.19869964  0.05597802    -0.04440
C1532       C  0.98336421  0.20008004  0.04787172    -0.01560
C1533       C  0.96442924  0.18395918  0.05974779     0.03430
C1534       C  0.97204387  0.16577507  0.07902117    -0.04440
C1535       C  0.99878544  0.16260677  0.08511260    -0.01550
C1536       C  0.01748507  0.17955754  0.07424698     0.03420
C1537       C  0.97595432  0.21762938  0.02694986     0.38080
C1538       C  0.00731018  0.14082447  0.10110700     0.38070
C1539       C  0.04486927  0.17701747  0.08149212     0.36490
C1540       C  0.93725022  0.18573123  0.05179459     0.36490
N1541       N  0.06671318  0.17506349  0.08722609    -0.38330
N1542       N  0.91563090  0.18719727  0.04520669    -0.38330
N1543       N  0.01460163  0.12299847  0.11300176    -0.37770
N1544       N  0.97016084  0.23143364  0.01004778    -0.37780
C1545       C  0.07750487  0.20383929  0.80763619    -0.04440
C1546       C  0.08469905  0.17702340  0.80460008    -0.01560
C1547       C  0.09776969  0.16334131  0.82454714     0.03430
C1548       C  0.10780579  0.17677878  0.84616166    -0.04440
C1549       C  0.10360193  0.20409272  0.84794753    -0.01550
C1550       C  0.08795500  0.21744850  0.82924683     0.03420
C1551       C  0.07943626  0.16313341  0.78064246     0.38080
C1552       C  0.11387354  0.21819086  0.87002239     0.38070
C1553       C  0.08242415  0.24501431  0.83286605     0.36490
C1554       C  0.10051456  0.13508763  0.82272896     0.36490
N1555       N  0.07826352  0.26704045  0.83602917    -0.38330
N1556       N  0.10241856  0.11257260  0.82128036    -0.38330
N1557       N  0.12203781  0.22941572  0.88766280    -0.37770
N1558       N  0.07542013  0.15197613  0.76158809    -0.37780
C1559       C  0.90006078  0.33427212  0.66331624    -0.04440
C1560       C  0.92568811  0.32593679  0.65701303    -0.01560
C1561       C  0.94034364  0.31062078  0.67463275     0.03430
C1562       C  0.93043950  0.30507528  0.69975023    -0.04440
C1563       C  0.90473217  0.31340888  0.70610819    -0.01550
C1564       C  0.88934445  0.32736394  0.68769992     0.03420
C1565       C  0.93743434  0.33368935  0.63250016     0.38080
C1566       C  0.89407914  0.30748864  0.73150461     0.38070
C1567       C  0.86295631  0.33570137  0.69429069     0.36490
C1568       C  0.96611946  0.30145493  0.66681778     0.36490
N1569       N  0.84187629  0.34237099  0.69948894    -0.38330
N1570       N  0.98642058  0.29424748  0.65970367    -0.38330
N1571       N  0.88555473  0.30275970  0.75178505    -0.37770
N1572       N  0.94708261  0.34007461  0.61318154    -0.37780
C1573       C  0.90418861  0.34471504  0.55330310    -0.04440
C1574       C  0.91537285  0.31950432  0.55591074    -0.01560
C1575       C  0.93126255  0.30913242  0.53587059     0.03430
C1576       C  0.93457932  0.32313873  0.51237322    -0.04440
C1577       C  0.92137823  0.34723668  0.50904407    -0.01550
C1578       C  0.90726151  0.35846738  0.52973923     0.03420
C1579       C  0.91010002  0.30399174  0.57890974     0.38080
C1580       C  0.91958955  0.35910584  0.48353831     0.38070
C1581       C  0.89439691  0.38349168  0.52588905     0.36490
C1582       C  0.94367357  0.28374275  0.53917811     0.36490
N1583       N  0.88432183  0.40340213  0.52192174    -0.38330
N1584       N  0.95349875  0.26344043  0.54177565    -0.38330
N1585       N  0.91685112  0.36849039  0.46328329    -0.37770
N1586       N  0.90567187  0.29143350  0.59709392    -0.37780
C1587       C  0.93290047  0.25802753  0.44150990    -0.04440
C1588       C  0.90645971  0.26186308  0.43400762    -0.01560
C1589       C  0.89256075  0.24151358  0.42205548     0.03430
C1590       C  0.90535328  0.21765253  0.41637332    -0.04440
C1591       C  0.93168998  0.21375963  0.42383344    -0.01550
C1592       C  0.94529399  0.23373091  0.43670081     0.03420
C1593       C  0.89369427  0.28702776  0.43784853     0.38080
C1594       C  0.94456483  0.18881029  0.41903462     0.38070
C1595       C  0.97173160  0.22874811  0.44573820     0.36490
C1596       C  0.86530596  0.24548939  0.41490368     0.36490
N1597       N  0.99273113  0.22414740  0.45289408    -0.38330
N1598       N  0.84356929  0.24864508  0.40925198    -0.38330
N1599       N  0.95477911  0.16891652  0.41519048    -0.37770
N1600       N  0.88351303  0.30707298  0.44093777    -0.37780
C1601       C  0.00604875  0.32300370  0.44356011    -0.04440
C1602       C  0.02891116  0.30750690  0.44008291    -0.01560
C1603       C  0.05029060  0.31699311  0.42538148     0.03430
C1604       C  0.04973310  0.34270085  0.41539798    -0.04440
C1605       C  0.02727958  0.35849713  0.41947750    -0.01550
C1606       C  0.00550726  0.34864955  0.43322429     0.03420
C1607       C  0.03117335  0.28236000  0.45293509     0.38080
C1608       C  0.02614574  0.38476521  0.40866660     0.38070
C1609       C  0.98250075  0.36508739  0.43611066     0.36490
C1610       C  0.07309753  0.30047101  0.42105934     0.36490
N1611       N  0.96471565  0.37908902  0.43789602    -0.38330
N1612       N  0.09124345  0.28724222  0.41753027    -0.38330
N1613       N  0.02518461  0.40568623  0.40007009    -0.37770
N1614       N  0.03357304  0.26253331  0.46356069    -0.37780
C1615       C  0.92244886  0.55360534  0.33646890    -0.04440
C1616       C  0.94736863  0.55699757  0.32510946    -0.01560
C1617       C  0.95940873  0.53619008  0.31154530     0.03430
C1618       C  0.94689887  0.51168723  0.30991090    -0.04440
C1619       C  0.92188349  0.50842090  0.32117086    -0.01550
C1620       C  0.90938144  0.52952745  0.33370140     0.03420
C1621       C  0.95989854  0.58234036  0.32594677     0.38080
C1622       C  0.90907940  0.48321868  0.32032818     0.38070
C1623       C  0.88278166  0.52654470  0.34325834     0.36490
C1624       C  0.98409187  0.54038147  0.29823949     0.36490
N1625       N  0.86144341  0.52410042  0.35047426    -0.38330
N1626       N  0.00361057  0.54399475  0.28738909    -0.38330
N1627       N  0.89862734  0.46322534  0.32000219    -0.37770
N1628       N  0.96995528  0.60254227  0.32623104    -0.37780
C1629       C  0.94810180  0.44696586  0.23749408    -0.04440
C1630       C  0.95668584  0.45316742  0.21216612    -0.01560
C1631       C  0.94411134  0.44211959  0.19040723     0.03430
C1632       C  0.92237795  0.42551530  0.19387792    -0.04440
C1633       C  0.91318917  0.42018214  0.21916622    -0.01550
C1634       C  0.92642764  0.43027127  0.24088368     0.03420
C1635       C  0.97835939  0.47099171  0.20855601     0.38080
C1636       C  0.89002958  0.40432350  0.22293656     0.38070
C1637       C  0.91822587  0.42273737  0.26678023     0.36490
C1638       C  0.95319536  0.44812162  0.16440741     0.36490
N1639       N  0.91178466  0.41629002  0.28734005    -0.38330
N1640       N  0.96031505  0.45288826  0.14360942    -0.38330
N1641       N  0.87132484  0.39208464  0.22623557    -0.37770
N1642       N  0.99560344  0.48530779  0.20572417    -0.37780
C1643       C  0.01564265  0.44135573  0.30851019    -0.04440
C1644       C  0.03871466  0.45477068  0.31567164    -0.01560
C1645       C  0.05863150  0.44184265  0.32989492     0.03430
C1646       C  0.05597940  0.41522554  0.33670698    -0.04440
C1647       C  0.03316251  0.40165511  0.32920746    -0.01550
C1648       C  0.01302923  0.41467932  0.31541531     0.03420
C1649       C  0.04234050  0.48181630  0.30801319     0.38080
C1650       C  0.02978562  0.37448103  0.33668081     0.38070
C1651       C  0.98912918  0.40077004  0.30931890     0.36490
C1652       C  0.08220121  0.45582658  0.33697692     0.36490
N1653       N  0.97011057  0.38963358  0.30443233    -0.38330
N1654       N  0.10099502  0.46695518  0.34266480    -0.38330
N1655       N  0.02706096  0.35282841  0.34264519    -0.37770
N1656       N  0.04552150  0.50339116  0.30203861    -0.37780
C1657       C  0.80573863  0.45070982  0.50870887    -0.04440
C1658       C  0.78996094  0.43356803  0.52383121    -0.01560
C1659       C  0.80112682  0.41778396  0.54373399     0.03430
C1660       C  0.82681976  0.42267975  0.55312853    -0.04440
C1661       C  0.84125031  0.44279301  0.54053641    -0.01550
C1662       C  0.83202876  0.45440529  0.51722318     0.03420
C1663       C  0.76178131  0.43281920  0.52015779     0.38080
C1664       C  0.86628679  0.45143358  0.55070011     0.38070
C1665       C  0.85078905  0.46901879  0.50186880     0.36490
C1666       C  0.78578188  0.39627251  0.55386994     0.36490
N1667       N  0.86640934  0.48067831  0.49045709    -0.38330
N1668       N  0.77339071  0.37894021  0.56139485    -0.38330
N1669       N  0.88620899  0.45854281  0.55861485    -0.37770
N1670       N  0.73927452  0.43214507  0.51752977    -0.37780
C1671       C  0.84034586  0.55796921  0.41011471    -0.04440
C1672       C  0.85190752  0.53368291  0.41678445    -0.01560
C1673       C  0.83727387  0.51471604  0.43020442     0.03430
C1674       C  0.81183181  0.52068550  0.43939968    -0.04440
C1675       C  0.80054066  0.54532759  0.43359082    -0.01550
C1676       C  0.81463922  0.56381448  0.41868780     0.03420
C1677       C  0.87888896  0.52797327  0.40966589     0.38080
C1678       C  0.77437214  0.55153629  0.44280013     0.38070
C1679       C  0.80313140  0.58922617  0.41308748     0.36490
C1680       C  0.84768325  0.48833922  0.43270475     0.36490
N1681       N  0.79401164  0.60954151  0.40867491    -0.38330
N1682       N  0.85580066  0.46720181  0.43421465    -0.38330
N1683       N  0.75348093  0.55649097  0.45014816    -0.37770
N1684       N  0.90046677  0.52343031  0.40426027    -0.37780
C1685       C  0.70504135  0.43372450  0.39670831    -0.04440
C1686       C  0.73106592  0.43422830  0.38740889    -0.01560
C1687       C  0.75161083  0.44237643  0.40376432     0.03430
C1688       C  0.74608709  0.45133628  0.42911353    -0.04440
C1689       C  0.71971389  0.45355464  0.43724518    -0.01550
C1690       C  0.69926098  0.44546516  0.42075698     0.03420
C1691       C  0.73638997  0.42863546  0.36036602     0.38080
C1692       C  0.71352479  0.46563831  0.46194572     0.38070
C1693       C  0.67258121  0.45327434  0.42654467     0.36490
C1694       C  0.77842599  0.44201628  0.39436349     0.36490
N1695       N  0.65174625  0.46119475  0.43087825    -0.38330
N1696       N  0.79983996  0.44185317  0.38692533    -0.38330
N1697       N  0.70854874  0.47537459  0.48158633    -0.37770
N1698       N  0.74068306  0.42483771  0.33865401    -0.37780
C1699       C  0.80871166  0.25946735  0.30480370    -0.04440
C1700       C  0.79659759  0.23484430  0.30675822    -0.01560
C1701       C  0.80814855  0.21495358  0.32206307     0.03430
C1702       C  0.83216778  0.21954280  0.33479956    -0.04440
C1703       C  0.84379093  0.24443893  0.33341947    -0.01550
C1704       C  0.83151005  0.26461771  0.31930844     0.03420
C1705       C  0.77239274  0.23002572  0.29295944     0.38080
C1706       C  0.86844578  0.24935075  0.34645438     0.38070
C1707       C  0.84168426  0.29099652  0.32065102     0.36490
C1708       C  0.79592860  0.18948269  0.32386115     0.36490
N1709       N  0.84958561  0.31208544  0.32223472    -0.38330
N1710       N  0.78623222  0.16913864  0.32530906    -0.38330
N1711       N  0.88824551  0.25332930  0.35655269    -0.37770
N1712       N  0.75300730  0.22626433  0.28202473    -0.37780
C1713       C  0.75066686  0.33667407  0.29092203    -0.04440
C1714       C  0.72757277  0.34214765  0.27672255    -0.01560
C1715       C  0.70730395  0.35743513  0.28784610     0.03430
C1716       C  0.70930386  0.36588506  0.31376493    -0.04440
C1717       C  0.73229278  0.36003386  0.32802500    -0.01550
C1718       C  0.75339949  0.34692496  0.31614216     0.03420
C1719       C  0.72362406  0.33043007  0.25151409     0.38080
C1720       C  0.73383932  0.36595343  0.35549590     0.38070
C1721       C  0.77790138  0.34374283  0.33011986     0.36490
C1722       C  0.68345525  0.36233277  0.27337909     0.36490
N1723       N  0.79740383  0.34138691  0.34132249    -0.38330
N1724       N  0.66451290  0.36593623  0.26158848    -0.38330
N1725       N  0.73518408  0.37004568  0.37750825    -0.37770
N1726       N  0.71981795  0.32096970  0.23155011    -0.37780
C1727       C  0.82291664  0.31648409  0.22748180    -0.04440
C1728       C  0.85043462  0.31945075  0.22998407    -0.01560
C1729       C  0.86508531  0.33111965  0.20986804     0.03430
C1730       C  0.85227773  0.34072046  0.18752614    -0.04440
C1731       C  0.82537263  0.33547589  0.18394143    -0.01550
C1732       C  0.81092267  0.32293237  0.20360841     0.03420
C1733       C  0.86401265  0.31129627  0.25333095     0.38080
C1734       C  0.81255726  0.34256297  0.15976956     0.38070
C1735       C  0.78388525  0.31589861  0.19883829     0.36490
C1736       C  0.89315976  0.33445859  0.21290862     0.36490
N1737       N  0.76248519  0.31005541  0.19450039    -0.38330
N1738       N  0.91552807  0.33706122  0.21538511    -0.38330
N1739       N  0.80234520  0.34817204  0.14049842    -0.37770
N1740       N  0.87571077  0.30460637  0.27138776    -0.37780
C1741       C  0.07262793  0.34466657  0.66664316    -0.04440
C1742       C  0.05277597  0.35721793  0.68093779    -0.01560
C1743       C  0.03204767  0.34278066  0.69143304     0.03430
C1744       C  0.03377555  0.31505305  0.69303376    -0.04440
C1745       C  0.05371212  0.30225868  0.67844325    -0.01550
C1746       C  0.07216133  0.31719247  0.66412856     0.03420
C1747       C  0.05426025  0.38490442  0.68652895     0.38080
C1748       C  0.05557728  0.27397864  0.67805394     0.38070
C1749       C  0.09064313  0.30431638  0.64698180     0.36490
C1750       C  0.00859229  0.35687646  0.69957382     0.36490
N1751       N  0.10494793  0.29385851  0.63293814    -0.38330
N1752       N  0.98983183  0.36809166  0.70577462    -0.38330
N1753       N  0.05715457  0.25139336  0.67770529    -0.37770
N1754       N  0.05528746  0.40663733  0.69248955    -0.37780
C1755       C  0.94129168  0.60319478  0.66818638    -0.04440
C1756       C  0.96279578  0.59484305  0.65276263    -0.01560
C1757       C  0.98293499  0.57925307  0.66358709     0.03430
C1758       C  0.98050976  0.56923658  0.68909595    -0.04440
C1759       C  0.95778937  0.57571659  0.70370645    -0.01550
C1760       C  0.93878291  0.59326838  0.69363210     0.03420
C1761       C  0.96465982  0.60261180  0.62569287     0.38080
C1762       C  0.95357545  0.56388730  0.72898539     0.38070
C1763       C  0.91598705  0.59998027  0.70909979     0.36490
C1764       C  0.00676800  0.57486473  0.64875541     0.36490
N1765       N  0.89788541  0.60503367  0.72170141    -0.38330
N1766       N  0.02578275  0.57149769  0.63691921    -0.38330
N1767       N  0.95015713  0.55446562  0.74913779    -0.37770
N1768       N  0.96616439  0.60863944  0.60408744    -0.37780
C1769       C  0.07862505  0.45509197  0.66070407    -0.04440
C1770       C  0.05094154  0.45680910  0.65884452    -0.01560
C1771       C  0.03690845  0.47689366  0.67204003     0.03430
C1772       C  0.05043095  0.49760998  0.68443726    -0.04440
C1773       C  0.07819819  0.49754527  0.68306528    -0.01550
C1774       C  0.09198755  0.47570929  0.67318945     0.03420
C1775       C  0.03661281  0.43728684  0.64439202     0.38080
C1776       C  0.09297015  0.52039330  0.69089814     0.38070
C1777       C  0.12018814  0.47484532  0.67620042     0.36490
C1778       C  0.00858782  0.47531322  0.67367216     0.36490
N1779       N  0.14257419  0.47446228  0.67953782    -0.38330
N1780       N  0.98598495  0.47395398  0.67490587    -0.38330
N1781       N  0.10480727  0.53853632  0.69713101    -0.37770
N1782       N  0.02510011  0.42181514  0.63280530    -0.37780
C1783       C  0.07831872  0.58917736  0.79700271    -0.04440
C1784       C  0.07271051  0.56218656  0.79886315    -0.01560
C1785       C  0.05786530  0.54972161  0.77933893     0.03430
C1786       C  0.05000737  0.56370010  0.75685226    -0.04440
C1787       C  0.05602891  0.59070324  0.75501148    -0.01550
C1788       C  0.06839721  0.60360950  0.77569674     0.03420
C1789       C  0.08094173  0.54753670  0.82160680     0.38080
C1790       C  0.05078107  0.60522861  0.73129326     0.38070
C1791       C  0.07100940  0.63186943  0.77472586     0.36490
C1792       C  0.05001587  0.52274229  0.78287597     0.36490
N1793       N  0.07291201  0.65440050  0.77393601    -0.38330
N1794       N  0.04369145  0.50123508  0.78575463    -0.38330
N1795       N  0.04668771  0.61680842  0.71238826    -0.37770
N1796       N  0.08744574  0.53591019  0.83981179    -0.37780
C1797       C  0.26033406  0.56762828  0.57555528    -0.04440
C1798       C  0.28574043  0.55794352  0.57003332    -0.01560
C1799       C  0.30800742  0.57043660  0.58040131     0.03430
C1800       C  0.30500930  0.59278356  0.59613414    -0.04440
C1801       C  0.27974180  0.60347141  0.60008665    -0.01550
C1802       C  0.25746232  0.59053588  0.59053793     0.03420
C1803       C  0.28897650  0.53552113  0.55316108     0.38080
C1804       C  0.27658054  0.62838474  0.61303380     0.38070
C1805       C  0.23147550  0.60046692  0.59671581     0.36490
C1806       C  0.33402762  0.56123574  0.57359301     0.36490
N1807       N  0.21072523  0.60826125  0.60168532    -0.38330
N1808       N  0.35467484  0.55405001  0.56749146    -0.38330
N1809       N  0.27356099  0.64862928  0.62254706    -0.37770
N1810       N  0.29151251  0.51767317  0.53963264    -0.37780
C1811       C  0.19515501  0.49379607  0.57669256    -0.04440
C1812       C  0.19498489  0.48990844  0.60390602    -0.01560
C1813       C  0.18390281  0.46710514  0.61471337     0.03430
C1814       C  0.16807740  0.45052037  0.59929260    -0.04440
C1815       C  0.16728053  0.45529343  0.57207583    -0.01550
C1816       C  0.18305182  0.47484980  0.56087979     0.03420
C1817       C  0.20464173  0.50994721  0.62125427     0.38080
C1818       C  0.14997982  0.44086370  0.55507798     0.38070
C1819       C  0.18700228  0.47508408  0.53296179     0.36490
C1820       C  0.18918032  0.46120274  0.64173360     0.36490
N1821       N  0.19015395  0.47517285  0.51072999    -0.38330
N1822       N  0.19423531  0.45643136  0.66310915    -0.38330
N1823       N  0.13610241  0.42969299  0.54134038    -0.37770
N1824       N  0.21213641  0.52594427  0.63516245    -0.37780
C1825       C  0.26166056  0.69248245  0.69232767    -0.04440
C1826       C  0.28416030  0.70642045  0.68428196    -0.01560
C1827       C  0.30588198  0.69309917  0.67337323     0.03430
C1828       C  0.30655236  0.66539899  0.67253990    -0.04440
C1829       C  0.28447907  0.65136654  0.68159931    -0.01550
C1830       C  0.26181270  0.66481409  0.69014868     0.03420
C1831       C  0.28549825  0.73451927  0.68762782     0.38080
C1832       C  0.28409872  0.62298562  0.68042860     0.38070
C1833       C  0.23815145  0.64998325  0.69526388     0.36490
C1834       C  0.32749881  0.70821590  0.66298536     0.36490
N1835       N  0.21934578  0.63810312  0.69931002    -0.38330
N1836       N  0.34455883  0.72039049  0.65452201    -0.38330
N1837       N  0.28367253  0.60038152  0.67951021    -0.37770
N1838       N  0.28700642  0.75693290  0.69008897    -0.37780
C1839       C  0.18761011  0.69336817  0.75510572    -0.04440
C1840       C  0.19625656  0.69425179  0.78104859    -0.01560
C1841       C  0.18408273  0.67857353  0.80009306     0.03430
C1842       C  0.16189361  0.66357909  0.79371929    -0.04440
C1843       C  0.15476787  0.66095609  0.76748565    -0.01550
C1844       C  0.16743954  0.67593679  0.74824400     0.03420
C1845       C  0.21800980  0.71090379  0.78801300     0.38080
C1846       C  0.13719232  0.64027714  0.75982147     0.38070
C1847       C  0.16094965  0.67200383  0.72117098     0.36490
C1848       C  0.19628553  0.67547891  0.82526112     0.36490
N1849       N  0.15589638  0.66838361  0.69963011    -0.38330
N1850       N  0.20689308  0.67234284  0.84484922    -0.38330
N1851       N  0.12429690  0.62312874  0.75299084    -0.37770
N1852       N  0.23533349  0.72424632  0.79354265    -0.37780
C1853       C  0.19186211  0.76313358  0.68642946    -0.04440
C1854       C  0.20497108  0.78739685  0.68743219    -0.01560
C1855       C  0.19471659  0.80944270  0.67421333     0.03430
C1856       C  0.17073030  0.80768123  0.66082002    -0.04440
C1857       C  0.15691984  0.78385203  0.66093456    -0.01550
C1858       C  0.16769690  0.76153337  0.67320562     0.03420
C1859       C  0.22841251  0.79000555  0.70301123     0.38080
C1860       C  0.13166788  0.78215722  0.64818182     0.38070
C1861       C  0.15410681  0.73680326  0.67159700     0.36490
C1862       C  0.20844030  0.83418432  0.67497936     0.36490
N1863       N  0.14298858  0.71724560  0.66997403    -0.38330
N1864       N  0.21931461  0.85395842  0.67558556    -0.38330
N1865       N  0.11138829  0.78067298  0.63831621    -0.37770
N1866       N  0.24688406  0.79232300  0.71574961    -0.37780
C1867       C  0.15944137  0.58992423  0.46887990    -0.04440
C1868       C  0.14459688  0.57944481  0.48967322    -0.01560
C1869       C  0.15731118  0.57002253  0.51224687     0.03430
C1870       C  0.18504344  0.56800687  0.51308426    -0.04440
C1871       C  0.19970286  0.57754479  0.49180039    -0.01550
C1872       C  0.18710733  0.59079472  0.47138280     0.03420
C1873       C  0.11616542  0.58045042  0.48901745     0.38080
C1874       C  0.22786312  0.57328313  0.49023923     0.38070
C1875       C  0.20297564  0.60734329  0.45484258     0.36490
C1876       C  0.14173897  0.56368224  0.53496729     0.36490
N1877       N  0.21595028  0.62159024  0.44308613    -0.38330
N1878       N  0.12927665  0.55870302  0.55307808    -0.38330
N1879       N  0.25027066  0.56986511  0.48886565    -0.37770
N1880       N  0.09349792  0.58132521  0.48858798    -0.37780
C1881       C  0.05859310  0.69395500  0.50227411    -0.04440
C1882       C  0.08117087  0.67885164  0.50770060    -0.01560
C1883       C  0.09491648  0.66641909  0.48747848     0.03430
C1884       C  0.08491621  0.66710966  0.46200766    -0.04440
C1885       C  0.06117628  0.68051739  0.45687148    -0.01550
C1886       C  0.04831046  0.69441265  0.47689980     0.03420
C1887       C  0.08953233  0.67508655  0.53432995     0.38080
C1888       C  0.05036179  0.68044482  0.43089283     0.38070
C1889       C  0.02458161  0.70917042  0.47148337     0.36490
C1890       C  0.11942082  0.65299918  0.49300044     0.36490
N1891       N  0.00558864  0.72090484  0.46723105    -0.38330
N1892       N  0.13914203  0.64275266  0.49768432    -0.38330
N1893       N  0.04174936  0.68026983  0.41015546    -0.37770
N1894       N  0.09585575  0.67152257  0.55559402    -0.37780
C1895       C  0.99450002  0.70817588  0.57471976    -0.04440
C1896       C  0.96943480  0.71926004  0.57060909    -0.01560
C1897       C  0.94771180  0.71033308  0.58510306     0.03430
C1898       C  0.95068415  0.68925380  0.60261202    -0.04440
C1899       C  0.97619099  0.68056378  0.60897527    -0.01550
C1900       C  0.99798112  0.68948042  0.59462019     0.03420
C1901       C  0.96603002  0.73984122  0.55146768     0.38080
C1902       C  0.98032712  0.66472787  0.63195575     0.38070
C1903       C  0.02404559  0.67965603  0.60047779     0.36490
C1904       C  0.92322817  0.72477925  0.58419676     0.36490
N1905       N  0.04486894  0.67186538  0.60510639    -0.38330
N1906       N  0.90422184  0.73725668  0.58399603    -0.38330
N1907       N  0.98407361  0.65304560  0.65085690    -0.37770
N1908       N  0.96332670  0.75621680  0.53613996    -0.37780
C1909       C  0.06944935  0.77023124  0.56116009    -0.04440
C1910       C  0.05739824  0.79474232  0.56608499    -0.01560
C1911       C  0.07216875  0.81561572  0.57620346     0.03430
C1912       C  0.09931308  0.81246545  0.58091427    -0.04440
C1913       C  0.11166790  0.78851059  0.57463953    -0.01550
C1914       C  0.09682918  0.76744748  0.56516872     0.03420
C1915       C  0.02984744  0.79875894  0.56024236     0.38080
C1916       C  0.13954183  0.78487464  0.57930031     0.38070
C1917       C  0.11002034  0.74269274  0.56057781     0.36490
C1918       C  0.05943513  0.84055275  0.58127578     0.36490
N1919       N  0.12134698  0.72338616  0.55692285    -0.38330
N1920       N  0.04928133  0.86043883  0.58530556    -0.38330
N1921       N  0.16172699  0.78192892  0.58303688    -0.37770
N1922       N  0.00787693  0.80198412  0.55560632    -0.37780
C1923       C  0.92066176  0.16976901  0.65930116    -0.04440
C1924       C  0.92814239  0.15981714  0.68402410    -0.01560
C1925       C  0.94835840  0.17162828  0.69829789     0.03430
C1926       C  0.96252972  0.19322105  0.68794518    -0.04440
C1927       C  0.95597357  0.20238287  0.66286507    -0.01550
C1928       C  0.93476729  0.19143667  0.64905145     0.03420
C1929       C  0.91498925  0.13750276  0.69571886     0.38080
C1930       C  0.97163374  0.22251116  0.65055043     0.38070
C1931       C  0.92767003  0.20313158  0.62434046     0.36490
C1932       C  0.95370456  0.16133719  0.72415329     0.36490
N1933       N  0.92205557  0.21294712  0.60485087    -0.38330
N1934       N  0.95772313  0.15282453  0.74460864    -0.38330
N1935       N  0.98420449  0.23828187  0.64039946    -0.37770
N1936       N  0.90493097  0.11966931  0.70528115    -0.37780
C1937       C  0.69965737  0.26295336  0.69771688    -0.04440
C1938       C  0.69613334  0.28861284  0.70681193    -0.01560
C1939       C  0.68143346  0.30654853  0.69200807     0.03430
C1940       C  0.67251267  0.29935917  0.66713229    -0.04440
C1941       C  0.67496560  0.27330049  0.65873196    -0.01550
C1942       C  0.68749741  0.25482681  0.67462830     0.03420
C1943       C  0.70718347  0.29630514  0.73149717     0.38080
C1944       C  0.66324623  0.26504872  0.63456544     0.38070
C1945       C  0.68688503  0.22727835  0.66788395     0.36490
C1946       C  0.67461637  0.33183366  0.70283206     0.36490
N1947       N  0.68628832  0.20530478  0.66263518    -0.38330
N1948       N  0.66878604  0.35171747  0.71189044    -0.38330
N1949       N  0.65380500  0.25789789  0.61553148    -0.37770
N1950       N  0.71601497  0.30246598  0.75118097    -0.37780
C1951       C  0.67501068  0.16274513  0.80072993    -0.04440
C1952       C  0.69184333  0.14976313  0.78294216    -0.01560
C1953       C  0.70336084  0.16370997  0.76235983     0.03430
C1954       C  0.70308258  0.19137142  0.76246489    -0.04440
C1955       C  0.68932598  0.20452497  0.78256640    -0.01550
C1956       C  0.67369304  0.19039748  0.80015715     0.03420
C1957       C  0.69896258  0.12246412  0.78629405     0.38080
C1958       C  0.69176354  0.23260901  0.78589481     0.38070
C1959       C  0.65755531  0.20468217  0.81862501     0.36490
C1960       C  0.71422097  0.14920903  0.74064435     0.36490
N1961       N  0.64475244  0.21614447  0.83331040    -0.38330
N1962       N  0.72273874  0.13753899  0.72334198    -0.38330
N1963       N  0.69362809  0.25496205  0.78868512    -0.37770
N1964       N  0.70590451  0.10107733  0.78931958    -0.37780
C1965       C  0.77440697  0.20322561  0.69529333    -0.04440
C1966       C  0.77218386  0.20275422  0.66773926    -0.01560
C1967       C  0.78953904  0.18763511  0.65273969     0.03430
C1968       C  0.80988493  0.17325458  0.66466903    -0.04440
C1969       C  0.81321226  0.17475986  0.69183631    -0.01550
C1970       C  0.79586350  0.19002252  0.70699489     0.03420
C1971       C  0.75263857  0.21799889  0.65384499     0.38080
C1972       C  0.83487960  0.16120740  0.70429000     0.38070
C1973       C  0.80094231  0.19307967  0.73450060     0.36490
C1974       C  0.78576687  0.18637888  0.62477761     0.36490
N1975       N  0.80505575  0.19547548  0.75642245    -0.38330
N1976       N  0.78271062  0.18545954  0.60256702    -0.38330
N1977       N  0.85202794  0.15039573  0.71444290    -0.37770
N1978       N  0.73832174  0.23051829  0.64154258    -0.37780
C1979       C  0.50269568  0.19258545  0.55233189    -0.04440
C1980       C  0.50322145  0.16667720  0.56188256    -0.01560
C1981       C  0.48154950  0.15663367  0.57570316     0.03430
C1982       C  0.46001330  0.17308765  0.58236677    -0.04440
C1983       C  0.46010804  0.19936109  0.57387476    -0.01550
C1984       C  0.48042995  0.20843227  0.55750456     0.03420
C1985       C  0.52615413  0.15026912  0.55766361     0.38080
C1986       C  0.43874332  0.21682441  0.58088886     0.38070
C1987       C  0.47690038  0.23289107  0.54368138     0.36490
C1988       C  0.48178865  0.12926592  0.58334548     0.36490
N1989       N  0.47313825  0.25186602  0.53195370    -0.38330
N1990       N  0.48201024  0.10742339  0.58930932    -0.38330
N1991       N  0.42178141  0.23084419  0.58653242    -0.37770
N1992       N  0.54443595  0.13718880  0.55428499    -0.37780
C1993       C  0.56973389  0.18640240  0.48016710    -0.04440
C1994       C  0.59575973  0.17748173  0.48351703    -0.01560
C1995       C  0.61006036  0.16709026  0.46243381     0.03430
C1996       C  0.59759567  0.16225619  0.43851185    -0.04440
C1997       C  0.57030606  0.16736318  0.43649087    -0.01550
C1998       C  0.55675222  0.18050980  0.45673476     0.03420
C1999       C  0.60701369  0.17668001  0.50932852     0.38080
C2000       C  0.55612845  0.15932541  0.41355193     0.38070
C2001       C  0.52953011  0.18799811  0.45337462     0.36490
C2002       C  0.63734712  0.16033666  0.46612923     0.36490
N2003       N  0.50776412  0.19390139  0.45070998    -0.38330
N2004       N  0.65906728  0.15531155  0.47014903    -0.38330
N2005       N  0.54475071  0.15273349  0.39534552    -0.37770
N2006       N  0.61571679  0.17527645  0.52999737    -0.37780
C2007       C  0.57505748  0.25895673  0.54628917    -0.04440
C2008       C  0.60294772  0.25994925  0.54716257    -0.01560
C2009       C  0.61580891  0.27907382  0.56220871     0.03430
C2010       C  0.60122886  0.29672388  0.57774597    -0.04440
C2011       C  0.57367790  0.29741773  0.57499633    -0.01550
C2012       C  0.56088430  0.27936520  0.55875596     0.03420
C2013       C  0.61920242  0.24199347  0.53246850     0.38080
C2014       C  0.55833677  0.31772619  0.58772134     0.38070
C2015       C  0.53322995  0.28330014  0.55365296     0.36490
C2016       C  0.64424631  0.28041909  0.56141196     0.36490
N2017       N  0.51128479  0.28758756  0.54992750    -0.38330
N2018       N  0.66687988  0.28152120  0.56043198    -0.38330
N2019       N  0.54608173  0.33390050  0.59779652    -0.37770
N2020       N  0.63330426  0.22892072  0.52052730    -0.37780
C2021       C  0.68592990  0.09484250  0.42845367    -0.04440
C2022       C  0.69984304  0.10973724  0.44691634    -0.01560
C2023       C  0.70844559  0.09806488  0.47023258     0.03430
C2024       C  0.70803281  0.07047118  0.47335407    -0.04440
C2025       C  0.69882380  0.05514841  0.45242025    -0.01550
C2026       C  0.68677990  0.06723971  0.43069261     0.03420
C2027       C  0.70581407  0.13704765  0.44215302     0.38080
C2028       C  0.70207283  0.02694250  0.45290227     0.38070
C2029       C  0.67640476  0.05114888  0.41006049     0.36490
C2030       C  0.71582157  0.11501421  0.49150396     0.36490
N2031       N  0.66822487  0.03830166  0.39355862    -0.38330
N2032       N  0.72156422  0.12861245  0.50843113    -0.38330
N2033       N  0.70471068  0.00444703  0.45322738    -0.37770
N2034       N  0.71098193  0.15873623  0.43836567    -0.37780
C2035       C  0.66032466  0.96995644  0.57464348    -0.04440
C2036       C  0.64796859  0.99226103  0.56381308    -0.01560
C2037       C  0.66294343  0.01174270  0.55126533     0.03430
C2038       C  0.69031647  0.00843233  0.54805992    -0.04440
C2039       C  0.70234937  0.98514061  0.55718797    -0.01550
C2040       C  0.68754175  0.96622563  0.57067230     0.03420
C2041       C  0.61984893  0.99552318  0.56554378     0.38080
C2042       C  0.72995366  0.98024156  0.55216863     0.38070
C2043       C  0.70023616  0.94229374  0.57948260     0.36490
C2044       C  0.65015963  0.03563249  0.54252543     0.36490
N2045       N  0.71034884  0.92319393  0.58642291    -0.38330
N2046       N  0.63992140  0.05464105  0.53552011    -0.38330
N2047       N  0.75195960  0.97633441  0.54817326    -0.37770
N2048       N  0.59740393  0.99863333  0.56609341    -0.37780
C2049       C  0.76500213  0.07161528  0.55249639    -0.04440
C2050       C  0.75831056  0.08768002  0.57382453    -0.01560
C2051       C  0.77806308  0.10044577  0.58802169     0.03430
C2052       C  0.80451005  0.09836933  0.58022391    -0.04440
C2053       C  0.81118328  0.08267038  0.55868436    -0.01550
C2054       C  0.79157851  0.06883827  0.54527061     0.03420
C2055       C  0.73099256  0.09174289  0.58069565     0.38080
C2056       C  0.83819648  0.08090546  0.55008545     0.38070
C2057       C  0.79879472  0.05123772  0.52440914     0.36490
C2058       C  0.77112623  0.11569335  0.61070554     0.36490
N2059       N  0.80450675  0.03703552  0.50788486    -0.38330
N2060       N  0.76541091  0.12757194  0.62893795    -0.38330
N2061       N  0.85960073  0.07958183  0.54274067    -0.37770
N2062       N  0.70918008  0.09503426  0.58603700    -0.37780
C2063       C  0.49120130  0.07760573  0.69443798    -0.04440
C2064       C  0.49823070  0.09842893  0.67783786    -0.01560
C2065       C  0.47881381  0.11178832  0.66351580     0.03430
C2066       C  0.45256225  0.10329959  0.66444356    -0.04440
C2067       C  0.44528121  0.08376424  0.68240891    -0.01550
C2068       C  0.46460535  0.07088977  0.69735803     0.03420
C2069       C  0.52557711  0.10546533  0.67474424     0.38080
C2070       C  0.41784349  0.07790930  0.68655504     0.38070
C2071       C  0.45722408  0.05080591  0.71584455     0.36490
C2072       C  0.48576921  0.13490860  0.64875320     0.36490
N2073       N  0.45140379  0.03485917  0.73071324    -0.38330
N2074       N  0.49159694  0.15372510  0.63769722    -0.38330
N2075       N  0.39599127  0.07346907  0.69048780    -0.37770
N2076       N  0.54740400  0.11094055  0.67220155    -0.37780
C2077       C  0.56555193  0.06508452  0.75749966    -0.04440
C2078       C  0.59278460  0.06921384  0.75452655    -0.01560
C2079       C  0.60805400  0.07706167  0.77586210     0.03430
C2080       C  0.59608226  0.08258138  0.79993561    -0.04440
C2081       C  0.56904550  0.07760138  0.80318052    -0.01550
C2082       C  0.55393413  0.06856316  0.78218230     0.03420
C2083       C  0.60505494  0.06655586  0.72922038     0.38080
C2084       C  0.55687394  0.08120379  0.82840086     0.38070
C2085       C  0.52647538  0.06247990  0.78612805     0.36490
C2086       C  0.63604149  0.07971327  0.77260686     0.36490
N2087       N  0.50457001  0.05761509  0.78921289    -0.38330
N2088       N  0.65837629  0.08098715  0.76921341    -0.38330
N2089       N  0.54723541  0.08400737  0.84854482    -0.37770
N2090       N  0.61487300  0.06443196  0.70907905    -0.37780
C2091       C  0.55105672  0.00156449  0.68508737    -0.04440
C2092       C  0.55139612  0.00324836  0.65759717    -0.01560
C2093       C  0.56193385  0.98261547  0.64279078     0.03430
C2094       C  0.57649942  0.96252292  0.65503078    -0.04440
C2095       C  0.57587029  0.96055783  0.68244064    -0.01550
C2096       C  0.56161913  0.97895865  0.69715395     0.03420
C2097       C  0.54267364  0.02677734  0.64420999     0.38080
C2098       C  0.58935036  0.93930420  0.69572014     0.38070
C2099       C  0.55762421  0.97435353  0.72468020     0.36490
C2100       C  0.55721271  0.98212179  0.61510023     0.36490
N2101       N  0.55439115  0.97061800  0.74659855    -0.38330
N2102       N  0.55221860  0.98140566  0.59324654    -0.38330
N2103       N  0.60007475  0.92240961  0.70638739    -0.37770
N2104       N  0.53586616  0.04551468  0.63343140    -0.37780
C2105       C  0.03965044  0.07073123  0.43618811    -0.04440
C2106       C  0.03013759  0.08564583  0.41513003    -0.01560
C2107       C  0.04727926  0.10114185  0.40018149     0.03430
C2108       C  0.07463272  0.10114488  0.40546578    -0.04440
C2109       C  0.08383292  0.08735607  0.42761023    -0.01550
C2110       C  0.06629859  0.07261081  0.44312294     0.03420
C2111       C  0.00250228  0.08487228  0.40854563     0.38080
C2112       C  0.11124370  0.08860235  0.43482489     0.38070
C2113       C  0.07577388  0.05909763  0.46603269     0.36490
C2114       C  0.03650666  0.11588390  0.37849069     0.36490
N2115       N  0.08343584  0.04869529  0.48450712    -0.38330
N2116       N  0.02776404  0.12750913  0.36121878    -0.38330
N2117       N  0.13310121  0.08965832  0.44065440    -0.37770
N2118       N  0.98056025  0.08448063  0.40299090    -0.37780
C2119       C  0.95913813  0.07614257  0.55008301    -0.04440
C2120       C  0.93823172  0.06090694  0.55974842    -0.01560
C2121       C  0.91782263  0.07269152  0.57376438     0.03430
C2122       C  0.91727278  0.10010982  0.57682866    -0.04440
C2123       C  0.93748548  0.11553007  0.56573337    -0.01550
C2124       C  0.95849301  0.10346564  0.55253818     0.03420
C2125       C  0.93699059  0.03310076  0.55427094     0.38080
C2126       C  0.93759789  0.14368657  0.56886808     0.38070
C2127       C  0.97968431  0.11903312  0.54200153     0.36490
C2128       C  0.89736236  0.05636801  0.58475588     0.36490
N2129       N  0.99656355  0.13144638  0.53354028    -0.38330
N2130       N  0.88120851  0.04325059  0.59357089    -0.38330
N2131       N  0.93788511  0.16617540  0.57113749    -0.37770
N2132       N  0.93544246  0.01103510  0.54974662    -0.37780
C2133       C  0.07811691  0.96054189  0.54682381    -0.04440
C2134       C  0.08029694  0.93416936  0.53798068    -0.01560
C2135       C  0.09628517  0.91599686  0.55129327     0.03430
C2136       C  0.10922046  0.92335880  0.57410517    -0.04440
C2137       C  0.10855310  0.94952272  0.58225834    -0.01550
C2138       C  0.09389863  0.96827165  0.56824596     0.03420
C2139       C  0.06509080  0.92455665  0.51631671     0.38080
C2140       C  0.12268466  0.95702505  0.60547006     0.38070
C2141       C  0.09519033  0.99536577  0.57642400     0.36490
C2142       C  0.09827430  0.88913405  0.54231895     0.36490
N2143       N  0.09632160  0.01690493  0.58312463    -0.38330
N2144       N  0.09990778  0.86778755  0.53508669    -0.38330
N2145       N  0.13383336  0.96293295  0.62404509    -0.37770
N2146       N  0.05303958  0.91611520  0.49935115    -0.37780
C2147       C  0.93141265  0.06348098  0.44055855    -0.04440
C2148       C  0.92401797  0.06094742  0.41401127    -0.01560
C2149       C  0.91054937  0.08143423  0.40122993     0.03430
C2150       C  0.90364439  0.10439801  0.41468906    -0.04440
C2151       C  0.90802876  0.10576878  0.44159030    -0.01550
C2152       C  0.92105671  0.08512313  0.45459541     0.03420
C2153       C  0.92988037  0.03741890  0.39935747     0.38080
C2154       C  0.90014502  0.12900780  0.45581456     0.38070
C2155       C  0.92239332  0.08602117  0.48258486     0.36490
C2156       C  0.90348951  0.07867641  0.37410392     0.36490
N2157       N  0.92251257  0.08706639  0.50495802    -0.38330
N2158       N  0.89790368  0.07631775  0.35251235    -0.38330
N2159       N  0.89394590  0.14757133  0.46710657    -0.37770
N2160       N  0.93437631  0.01875110  0.38747900    -0.37780
C2161       C  0.78733861  0.45106038  0.69401202    -0.04440
C2162       C  0.77878494  0.44327766  0.66905881    -0.01560
C2163       C  0.79361713  0.42557162  0.65431370     0.03430
C2164       C  0.81783866  0.41616225  0.66352863    -0.04440
C2165       C  0.82617384  0.42310584  0.68874417    -0.01550
C2166       C  0.81065189  0.44017728  0.70419551     0.03420
C2167       C  0.75493740  0.45393676  0.65765264     0.38080
C2168       C  0.85062574  0.41264311  0.69872245     0.38070
C2169       C  0.81920292  0.44744712  0.72992073     0.36490
C2170       C  0.78430035  0.41830249  0.62882107     0.36490
N2171       N  0.82597814  0.45322568  0.75050675    -0.38330
N2172       N  0.77615769  0.41289004  0.60867889    -0.38330
N2173       N  0.87014944  0.40422857  0.70665393    -0.37770
N2174       N  0.73638914  0.46202450  0.64744374    -0.37780
C2175       C  0.69082463  0.45017913  0.69279289    -0.04440
C2176       C  0.70227762  0.42491284  0.69200069    -0.01560
C2177       C  0.69114865  0.40526546  0.67660324     0.03430
C2178       C  0.66730495  0.40998271  0.66359979    -0.04440
C2179       C  0.65602621  0.43530589  0.66418646    -0.01550
C2180       C  0.66771445  0.45531033  0.67884357     0.03420
C2181       C  0.72625531  0.41914935  0.70599558     0.38080
C2182       C  0.63450292  0.44202475  0.64724730     0.38070
C2183       C  0.65612619  0.48129900  0.67941826     0.36490
C2184       C  0.70526393  0.38080818  0.67279303     0.36490
N2185       N  0.64687627  0.50201607  0.67994291    -0.38330
N2186       N  0.71692957  0.36161916  0.66944960    -0.38330
N2187       N  0.61811655  0.44899015  0.63338030    -0.37770
N2188       N  0.74536942  0.41373018  0.71683185    -0.37780
C2189       C  0.78708285  0.58590447  0.69302981    -0.04440
C2190       C  0.78797635  0.58869348  0.66564750    -0.01560
C2191       C  0.80783128  0.60360993  0.65365975     0.03430
C2192       C  0.82692517  0.61639762  0.66881948    -0.04440
C2193       C  0.82364476  0.61675144  0.69615872    -0.01550
C2194       C  0.80398973  0.60155468  0.70813912     0.03420
C2195       C  0.76806557  0.57671980  0.64957415     0.38080
C2196       C  0.84053197  0.63246037  0.71245335     0.38070
C2197       C  0.80188265  0.60216975  0.73613992     0.36490
C2198       C  0.80788290  0.60643811  0.62563199     0.36490
N2199       N  0.80082945  0.60371149  0.75847299    -0.38330
N2200       N  0.80779749  0.60874215  0.60329774    -0.38330
N2201       N  0.85356825  0.64517632  0.72565343    -0.37770
N2202       N  0.75218740  0.56725312  0.63673005    -0.37780
C2203       C  0.66906054  0.60195037  0.82948251    -0.04440
C2204       C  0.69364293  0.61227481  0.82132566    -0.01560
C2205       C  0.71109306  0.59688829  0.80642844     0.03430
C2206       C  0.70442932  0.57118353  0.79964966    -0.04440
C2207       C  0.67911765  0.56190039  0.80499151    -0.01550
C2208       C  0.66120846  0.57737949  0.81917963     0.03420
C2209       C  0.70172350  0.63844719  0.82842661     0.38080
C2210       C  0.67178237  0.53591936  0.79644186     0.38070
C2211       C  0.63489403  0.56747010  0.82304763     0.36490
C2212       C  0.73655420  0.60710255  0.79925871     0.36490
N2213       N  0.61392765  0.55944908  0.82593665    -0.38330
N2214       N  0.75676113  0.61561666  0.79375427    -0.38330
N2215       N  0.66595511  0.51521616  0.78965317    -0.37770
N2216       N  0.70843841  0.65927007  0.83394480    -0.37780
C2217       C  0.49985663  0.56207532  0.18702554    -0.04440
C2218       C  0.47702325  0.56687194  0.20208709    -0.01560
C2219       C  0.45581233  0.58149931  0.19173140     0.03430
C2220       C  0.45648596  0.59028876  0.16575254    -0.04440
C2221       C  0.47850787  0.58394891  0.15015373    -0.01550
C2222       C  0.50045418  0.57098485  0.16100620     0.03420
C2223       C  0.47497233  0.55618698  0.22810712     0.38080
C2224       C  0.47907251  0.59140170  0.12295656     0.38070
C2225       C  0.52413465  0.56807389  0.14560608     0.36490
C2226       C  0.43278298  0.58657163  0.20753607     0.36490
N2227       N  0.54303122  0.56586041  0.13333332    -0.38330
N2228       N  0.41438020  0.59061183  0.22009470    -0.38330
N2229       N  0.47956996  0.59725061  0.10125888    -0.37770
N2230       N  0.47332474  0.54763495  0.24885020    -0.37780
C2231       C  0.59649996  0.45256885  0.15328839    -0.04440
C2232       C  0.61078360  0.47460051  0.16167470    -0.01560
C2233       C  0.59826639  0.49481821  0.17590004     0.03430
C2234       C  0.57143716  0.49293934  0.18289693    -0.04440
C2235       C  0.55739171  0.47044930  0.17519498    -0.01550
C2236       C  0.56968691  0.45066394  0.16021897     0.03420
C2237       C  0.63819977  0.47718698  0.15463482     0.38080
C2238       C  0.53026967  0.46730110  0.18306510     0.38070
C2239       C  0.55471088  0.42796369  0.15246715     0.36490
C2240       C  0.61287619  0.51817768  0.18221801     0.36490
N2241       N  0.54272657  0.40991823  0.14622987    -0.38330
N2242       N  0.62454730  0.53680259  0.18724549    -0.38330
N2243       N  0.50861208  0.46480055  0.18925161    -0.37770
N2244       N  0.66004869  0.47926459  0.14897041    -0.37780
C2245       C  0.45565379  0.67417765  0.09819589    -0.04440
C2246       C  0.48161809  0.66785008  0.10501865    -0.01560
C2247       C  0.50239636  0.67567586  0.08892414     0.03430
C2248       C  0.49737281  0.69139458  0.06686809    -0.04440
C2249       C  0.47156463  0.69976097  0.06143993    -0.01550
C2250       C  0.45072107  0.69134608  0.07731032     0.03420
C2251       C  0.48706849  0.65490559  0.12949968     0.38080
C2252       C  0.46663584  0.71768238  0.04010876     0.38070
C2253       C  0.42479957  0.70252200  0.07391240     0.36490
C2254       C  0.52900391  0.66758052  0.09507412     0.36490
N2255       N  0.40451001  0.71248162  0.07158008    -0.38330
N2256       N  0.55022589  0.66113382  0.09991720    -0.38330
N2257       N  0.46276075  0.73199468  0.02308945    -0.37770
N2258       N  0.49166903  0.64535833  0.14936592    -0.37780
C2259       C  0.57152713  0.75298746  0.06584467    -0.04440
C2260       C  0.55794217  0.77524679  0.07536812    -0.01560
C2261       C  0.57158928  0.79491755  0.08862523     0.03430
C2262       C  0.59925059  0.79392260  0.09009532    -0.04440
C2263       C  0.61287267  0.77302763  0.07802064    -0.01550
C2264       C  0.59905482  0.75166722  0.06807321     0.03420
C2265       C  0.53004223  0.77857195  0.07070466     0.38080
C2266       C  0.64087919  0.77395306  0.07371908     0.38070
C2267       C  0.61335451  0.72812816  0.06079217     0.36490
C2268       C  0.55713905  0.81710529  0.09903894     0.36490
N2269       N  0.62478691  0.70939026  0.05505374    -0.38330
N2270       N  0.54559581  0.83480091  0.10725282    -0.38330
N2271       N  0.66290212  0.77460413  0.06849284    -0.37770
N2272       N  0.50782507  0.78125079  0.06696800    -0.37780
C2273       C  0.56017135  0.69149712  0.99076675    -0.04440
C2274       C  0.57276267  0.70751319  0.97208705    -0.01560
C2275       C  0.58799425  0.69621223  0.95212357     0.03430
C2276       C  0.58645357  0.66897059  0.94701680    -0.04440
C2277       C  0.57036806  0.65351917  0.96344975    -0.01550
C2278       C  0.55963706  0.66415060  0.98639186     0.03420
C2279       C  0.56940928  0.73574268  0.97266350     0.38080
C2280       C  0.56392636  0.62678793  0.95691959     0.38070
C2281       C  0.54935610  0.64636621  0.00587013     0.36490
C2282       C  0.60442149  0.71320768  0.93648361     0.36490
N2283       N  0.54129195  0.63204272  0.02132907    -0.38330
N2284       N  0.61756338  0.72688027  0.92422191    -0.38330
N2285       N  0.55754365  0.60581106  0.95164233    -0.37770
N2286       N  0.56672185  0.75823046  0.97303077    -0.37780
C2287       C  0.69253123  0.49649927  0.04607762    -0.04440
C2288       C  0.67028104  0.50090670  0.06183304    -0.01560
C2289       C  0.65559281  0.47965465  0.07114912     0.03430
C2290       C  0.66418130  0.45385565  0.06640454    -0.04440
C2291       C  0.68640849  0.44936605  0.05062203    -0.01550
C2292       C  0.70024833  0.47071047  0.03999477     0.03420
C2293       C  0.66311288  0.52732711  0.06934979     0.38080
C2294       C  0.69498271  0.42281704  0.04534112     0.38070
C2295       C  0.72268935  0.46623034  0.02326715     0.36490
C2296       C  0.63182324  0.48437774  0.08594984     0.36490
N2297       N  0.74057738  0.46270705  0.00986515    -0.38330
N2298       N  0.61267219  0.48829015  0.09739368    -0.38330
N2299       N  0.70189507  0.40165629  0.04110629    -0.37770
N2300       N  0.65761445  0.54837022  0.07562053    -0.37780
C2301       C  0.75726027  0.56808476  0.05931784    -0.04440
C2302       C  0.75302408  0.59285022  0.07073283    -0.01560
C2303       C  0.77316190  0.60491304  0.08501795     0.03430
C2304       C  0.79723893  0.59172447  0.08924150    -0.04440
C2305       C  0.80125267  0.56670173  0.07837390    -0.01550
C2306       C  0.78152019  0.55509243  0.06320158     0.03420
C2307       C  0.72763810  0.60560823  0.06848424     0.38080
C2308       C  0.82623127  0.55339816  0.08155625     0.38070
C2309       C  0.78657356  0.53008575  0.05085617     0.36490
C2310       C  0.76897169  0.63092056  0.09545841     0.36490
N2311       N  0.79059013  0.51015703  0.04100043    -0.38330
N2312       N  0.76559123  0.65172075  0.10363601    -0.38330
N2313       N  0.84609707  0.54260047  0.08377868    -0.37770
N2314       N  0.70733724  0.61569060  0.06676541    -0.37780
C2315       C  0.69420811  0.57028884  0.98356032    -0.04440
C2316       C  0.66648819  0.57080735  0.98206396    -0.01560
C2317       C  0.65376911  0.58186636  0.96043947     0.03430
C2318       C  0.66813184  0.59561105  0.94131146    -0.04440
C2319       C  0.69584062  0.59604597  0.94317119    -0.01550
C2320       C  0.70881792  0.58280337  0.96372192     0.03420
C2321       C  0.65048006  0.56077049  0.00315293     0.38080
C2322       C  0.71120080  0.60905076  0.92330531     0.38070
C2323       C  0.73722576  0.58152876  0.96391954     0.36490
C2324       C  0.62570815  0.57839850  0.95808197     0.36490
N2325       N  0.75989480  0.58058308  0.96406934    -0.38330
N2326       N  0.60350360  0.57449395  0.95629698    -0.38330
N2327       N  0.72346353  0.61944903  0.90748160    -0.37770
N2328       N  0.63715169  0.55285790  0.01952643    -0.37780
C2329       C  0.58698418  0.58436139  0.30163779    -0.04440
C2330       C  0.58777987  0.59714872  0.27729202    -0.01560
C2331       C  0.57882283  0.58439628  0.25476797     0.03430
C2332       C  0.56849834  0.55884300  0.25629346    -0.04440
C2333       C  0.56812253  0.54583100  0.28053530    -0.01550
C2334       C  0.57752892  0.55845529  0.30306858     0.03420
C2335       C  0.59866461  0.62321508  0.27516896     0.38080
C2336       C  0.55744084  0.51969167  0.28240883     0.38070
C2337       C  0.57682425  0.54503736  0.32787948     0.36490
C2338       C  0.58079892  0.59739733  0.22977765     0.36490
N2339       N  0.57626533  0.53435829  0.34769666    -0.38330
N2340       N  0.58239076  0.60766255  0.20980584    -0.38330
N2341       N  0.54891580  0.49882385  0.28385886    -0.37770
N2342       N  0.60732728  0.64399464  0.27333161    -0.37780
C2343       C  0.69285665  0.68654556  0.26808248    -0.04440
C2344       C  0.68243846  0.69989012  0.28986843    -0.01560
C2345       C  0.66855477  0.68619126  0.30930539     0.03430
C2346       C  0.66513339  0.65884577  0.30760541    -0.04440
C2347       C  0.67616875  0.64523756  0.28652588    -0.01550
C2348       C  0.68993189  0.65885863  0.26692494     0.03420
C2349       C  0.68707741  0.72756806  0.29333541     0.38080
C2350       C  0.67252938  0.61716392  0.28441991     0.38070
C2351       C  0.70091964  0.64365925  0.24585417     0.36490
C2352       C  0.65840998  0.70019680  0.33166719     0.36490
N2353       N  0.70975102  0.63017383  0.23009552    -0.38330
N2354       N  0.65011450  0.71095161  0.34962865    -0.38330
N2355       N  0.66963058  0.59480916  0.28272877    -0.37770
N2356       N  0.69061100  0.74958024  0.29684023    -0.37780
C2357       C  0.76577898  0.69073509  0.20391415    -0.04440
C2358       C  0.79171764  0.70002985  0.20276453    -0.01560
C2359       C  0.81023947  0.68743587  0.18665702     0.03430
C2360       C  0.80313036  0.66470935  0.17296723    -0.04440
C2361       C  0.77753684  0.65484183  0.17506865    -0.01550
C2362       C  0.75848328  0.66894810  0.18886365     0.03420
C2363       C  0.79910040  0.72280594  0.21764451     0.38080
C2364       C  0.77068489  0.63021190  0.16301938     0.38070
C2365       C  0.73104756  0.66272518  0.18518274     0.36490
C2366       C  0.83665924  0.69752330  0.18453295     0.36490
N2367       N  0.70918866  0.65822435  0.18142013    -0.38330
N2368       N  0.85769621  0.70566457  0.18277141    -0.38330
N2369       N  0.76522013  0.61033571  0.15391645    -0.37770
N2370       N  0.80498083  0.74100955  0.22949738    -0.37780
C2371       C  0.69800035  0.75836328  0.19901969    -0.04440
C2372       C  0.69057442  0.78233790  0.21051829    -0.01560
C2373       C  0.68022871  0.80289706  0.19511438     0.03430
C2374       C  0.67907487  0.80047942  0.16778419    -0.04440
C2375       C  0.68957187  0.77775333  0.15620802    -0.01550
C2376       C  0.69700945  0.75616403  0.17163665     0.03420
C2377       C  0.69509683  0.78667545  0.23786377     0.38080
C2378       C  0.69468024  0.77694080  0.12863679     0.38070
C2379       C  0.70344328  0.73157186  0.15903586     0.36490
C2380       C  0.67239017  0.82727594  0.20730583     0.36490
N2381       N  0.70853518  0.71210531  0.14876069    -0.38330
N2382       N  0.66624390  0.84676795  0.21698056    -0.38330
N2383       N  0.70044909  0.77621837  0.10696918    -0.37770
N2384       N  0.69903743  0.79095923  0.25950367    -0.37780
C2385       C  0.09363361  0.34806244  0.82970121    -0.04440
C2386       C  0.09287159  0.34304055  0.80283154    -0.01560
C2387       C  0.07204704  0.32860084  0.79229982     0.03430
C2388       C  0.05143458  0.31962493  0.80840715    -0.04440
C2389       C  0.05166807  0.32538980  0.83505433    -0.01550
C2390       C  0.07259759  0.33968550  0.84567827     0.03420
C2391       C  0.11370782  0.35222526  0.78596523     0.38080
C2392       C  0.03004794  0.31716980  0.85139137     0.38070
C2393       C  0.07175497  0.34688232  0.87287007     0.36490
C2394       C  0.07237269  0.32223237  0.76488035     0.36490
N2395       N  0.07101549  0.35279011  0.89450247    -0.38330
N2396       N  0.07288498  0.31714023  0.74304419    -0.38330
N2397       N  0.01277787  0.31062457  0.86440801    -0.37770
N2398       N  0.13023280  0.35958358  0.77243084    -0.37780
C2399       C  0.66563138  0.41656946  0.83657393    -0.04440
C2400       C  0.67177213  0.44201252  0.84515695    -0.01560
C2401       C  0.69252575  0.45580452  0.83376143     0.03430
C2402       C  0.70544656  0.44596121  0.81116778    -0.04440
C2403       C  0.70054823  0.41990138  0.80370910    -0.01550
C2404       C  0.68116314  0.40512172  0.81663923     0.03420
C2405       C  0.65645963  0.45482707  0.86535243     0.38080
C2406       C  0.71626570  0.40747910  0.78377599     0.38070
C2407       C  0.67804143  0.37780302  0.80975100     0.36490
C2408       C  0.70062582  0.47990150  0.84631778     0.36490
N2409       N  0.67571467  0.35601934  0.80425330    -0.38330
N2410       N  0.70697054  0.49896303  0.85651599    -0.38330
N2411       N  0.72882079  0.39687633  0.76830580    -0.37770
N2412       N  0.64442622  0.46522677  0.88138541    -0.37780
C2413       C  0.32047521  0.51583180  0.94003072    -0.04440
C2414       C  0.31723207  0.54176133  0.94871299    -0.01560
C2415       C  0.32943579  0.56252670  0.93521264     0.03430
C2416       C  0.34431051  0.55742177  0.91259113    -0.04440
C2417       C  0.34855657  0.53131173  0.90481385    -0.01550
C2418       C  0.33668225  0.51062763  0.91844430     0.03420
C2419       C  0.30147628  0.54696994  0.97155423     0.38080
C2420       C  0.36643713  0.52536943  0.88379493     0.38070
C2421       C  0.34152990  0.48378553  0.91054684     0.36490
C2422       C  0.32727416  0.58898160  0.94501802     0.36490
N2423       N  0.34541327  0.46237040  0.90437173    -0.38330
N2424       N  0.32577622  0.60996943  0.95322599    -0.38330
N2425       N  0.38102353  0.51971378  0.86755244    -0.37770
N2426       N  0.28893068  0.55109754  0.98982409    -0.37780
C2427       C  0.25232726  0.44708197  0.93247044    -0.04440
C2428       C  0.23290173  0.43216157  0.94527220    -0.01560
C2429       C  0.21442640  0.41777665  0.93093358     0.03430
C2430       C  0.21134816  0.42208239  0.90381895    -0.04440
C2431       C  0.22918407  0.43916467  0.89127732    -0.01550
C2432       C  0.25061634  0.44973720  0.90503644     0.03420
C2433       C  0.23098922  0.43221555  0.97337951     0.38080
C2434       C  0.22666661  0.44497016  0.86379403     0.38070
C2435       C  0.27140532  0.46215222  0.89030177     0.36490
C2436       C  0.19912505  0.39824577  0.94461624     0.36490
N2437       N  0.28772097  0.47202461  0.87818926    -0.38330
N2438       N  0.18722761  0.38254364  0.95566952    -0.38330
N2439       N  0.22479220  0.44976913  0.84192111    -0.37770
N2440       N  0.22931338  0.43226014  0.99576443    -0.37780
C2441       C  0.32085165  0.44142285  0.00373469    -0.04440
C2442       C  0.32272997  0.45394644  0.02813282    -0.01560
C2443       C  0.33518713  0.44127384  0.04923003     0.03430
C2444       C  0.34445125  0.41532046  0.04674374    -0.04440
C2445       C  0.34168921  0.40238385  0.02272858    -0.01550
C2446       C  0.33063053  0.41557899  0.00116814     0.03420
C2447       C  0.31133409  0.47975353  0.03178651     0.38080
C2448       C  0.35122712  0.37575633  0.01982656     0.38070
C2449       C  0.33052783  0.40291856  0.97603987     0.36490
C2450       C  0.33841621  0.45501871  0.07356338     0.36490
N2451       N  0.33051978  0.39286819  0.95596993    -0.38330
N2452       N  0.34108657  0.46613719  0.09287457    -0.38330
N2453       N  0.35870077  0.35448445  0.01741911    -0.37770
N2454       N  0.30217420  0.50030053  0.03471444    -0.37780
C2455       C  0.51312703  0.44667626  0.81743169    -0.04440
C2456       C  0.53957903  0.45111494  0.81091241    -0.01560
C2457       C  0.55954830  0.43759202  0.82419903     0.03430
C2458       C  0.55303738  0.41991853  0.84419143    -0.04440
C2459       C  0.52676020  0.41710533  0.85213472    -0.01550
C2460       C  0.50671843  0.43020123  0.83847516     0.03420
C2461       C  0.54617048  0.46955199  0.79050443     0.38080
C2462       C  0.52034558  0.40070851  0.87421978     0.38070
C2463       C  0.47949570  0.42609585  0.84546810     0.36490
C2464       C  0.58680412  0.44188359  0.81739298     0.36490
N2465       N  0.45775709  0.42283581  0.85095895    -0.38330
N2466       N  0.60852726  0.44544373  0.81203508    -0.38330
N2467       N  0.51505287  0.38798398  0.89205073    -0.37770
N2468       N  0.55138984  0.48434646  0.77429717    -0.37780
C2469       C  0.44536322  0.51658473  0.80643787    -0.04440
C2470       C  0.45975812  0.53552964  0.82043635    -0.01560
C2471       C  0.44673026  0.55439770  0.83578844     0.03430
C2472       C  0.41932909  0.55837278  0.83331807    -0.04440
C2473       C  0.40516349  0.54112117  0.81687799    -0.01550
C2474       C  0.41778336  0.51942360  0.80519916     0.03420
C2475       C  0.48818195  0.53613137  0.81875482     0.38080
C2476       C  0.37709086  0.54422201  0.81310320     0.38070
C2477       C  0.40186628  0.49934050  0.79330892     0.36490
C2478       C  0.46186277  0.56884490  0.85464759     0.36490
N2479       N  0.38902649  0.48339132  0.78393473    -0.38330
N2480       N  0.47410612  0.57994468  0.86988357    -0.38330
N2481       N  0.35473056  0.54652194  0.81000095    -0.37770
N2482       N  0.51081609  0.53667347  0.81737353    -0.37780
C2483       C  0.45588738  0.44349642  0.73997345    -0.04440
C2484       C  0.45506556  0.45457065  0.71483607    -0.01560
C2485       C  0.44556812  0.43983025  0.69372548     0.03430
C2486       C  0.43732758  0.41372562  0.69745303    -0.04440
C2487       C  0.43892865  0.40235911  0.72234743    -0.01550
C2488       C  0.44772459  0.41723609  0.74355421     0.03420
C2489       C  0.46430329  0.48099066  0.71057955     0.38080
C2490       C  0.43022173  0.37568271  0.72646157     0.38070
C2491       C  0.44723213  0.40569492  0.76932467     0.36490
C2492       C  0.44450247  0.45142904  0.66802024     0.36490
N2493       N  0.44688180  0.39644833  0.78983757    -0.38330
N2494       N  0.44362844  0.46060801  0.64748905    -0.38330
N2495       N  0.42330913  0.35441686  0.72974314    -0.37770
N2496       N  0.47164975  0.50208906  0.70718295    -0.37780
C2497       C  0.51153787  0.30604886  0.93200913    -0.04440
C2498       C  0.53470732  0.31075660  0.94627855    -0.01560
C2499       C  0.55609939  0.32359967  0.93449114     0.03430
C2500       C  0.55479849  0.33116941  0.90813810    -0.04440
C2501       C  0.53221496  0.32522647  0.89353491    -0.01550
C2502       C  0.51057868  0.31322750  0.90548542     0.03420
C2503       C  0.53675332  0.30203358  0.97301011     0.38080
C2504       C  0.53049406  0.33266697  0.86634477     0.38070
C2505       C  0.48696456  0.30952357  0.89038572     0.36490
C2506       C  0.57967541  0.32846441  0.94936349     0.36490
N2507       N  0.46856307  0.30679066  0.87766200    -0.38330
N2508       N  0.59847698  0.33234938  0.96122059    -0.38330
N2509       N  0.52903664  0.33858693  0.84470981    -0.37770
N2510       N  0.53836478  0.29510530  0.99434032    -0.37780
C2511       C  0.44130730  0.31282780  0.99996537    -0.04440
C2512       C  0.43535237  0.29904538  0.02306548    -0.01560
C2513       C  0.42469944  0.31235180  0.04459902     0.03430
C2514       C  0.42042718  0.33967073  0.04348487    -0.04440
C2515       C  0.42639359  0.35348460  0.02044735    -0.01550
C2516       C  0.43640337  0.34008409  0.99869138     0.03420
C2517       C  0.44068547  0.27120455  0.02504134     0.38080
C2518       C  0.42117214  0.38138505  0.01863878     0.38070
C2519       C  0.44074083  0.35431478  0.97466636     0.36490
C2520       C  0.41873926  0.29791353  0.06816340     0.36490
N2521       N  0.44423551  0.36567542  0.95553322    -0.38330
N2522       N  0.41389009  0.28639717  0.08691125    -0.38330
N2523       N  0.41698735  0.40361497  0.01719575    -0.37770
N2524       N  0.44475986  0.24898156  0.02677317    -0.37780
C2525       C  0.43736988  0.24265957  0.93230721    -0.04440
C2526       C  0.43877534  0.21725045  0.94297870    -0.01560
C2527       C  0.42559159  0.19647681  0.93085670     0.03430
C2528       C  0.41221852  0.20080082  0.90727095    -0.04440
C2529       C  0.41175754  0.22598103  0.89606707    -0.01550
C2530       C  0.42319818  0.24708742  0.90921708     0.03420
C2531       C  0.45378357  0.21251205  0.96639273     0.38080
C2532       C  0.39935633  0.23026761  0.87111148     0.38070
C2533       C  0.41888879  0.27353584  0.89987632     0.36490
C2534       C  0.42608057  0.17057268  0.94243329     0.36490
N2535       N  0.41465425  0.29458790  0.89264921    -0.38330
N2536       N  0.42641824  0.14993764  0.95172132    -0.38330
N2537       N  0.38990700  0.23375193  0.85100498    -0.37770
N2538       N  0.46586821  0.20865111  0.98499430    -0.37780
C2539       C  0.32954803  0.20072837  0.83787027    -0.04440
C2540       C  0.32261800  0.19805019  0.81149740    -0.01560
C2541       C  0.31400136  0.21999483  0.79711931     0.03430
C2542       C  0.31305730  0.24491140  0.80876422    -0.04440
C2543       C  0.31895827  0.24736702  0.83543895    -0.01550
C2544       C  0.32659945  0.22526025  0.85006801     0.03420
C2545       C  0.32367820  0.17251125  0.79933711     0.38080
C2546       C  0.31780476  0.27279570  0.84779757     0.38070
C2547       C  0.33251495  0.22810551  0.87743807     0.36490
C2548       C  0.30511795  0.21669893  0.77066342     0.36490
N2549       N  0.33720988  0.23041132  0.89925422    -0.38330
N2550       N  0.29769757  0.21375416  0.74970155    -0.38330
N2551       N  0.31693523  0.29298286  0.85783022    -0.37770
N2552       N  0.32446032  0.15211378  0.78970657    -0.37780
C2553       C  0.32730800  0.31516252  0.74042746    -0.04440
C2554       C  0.33378098  0.34208403  0.74205042    -0.01560
C2555       C  0.34785356  0.35447658  0.72189688     0.03430
C2556       C  0.35594464  0.34020204  0.69992312    -0.04440
C2557       C  0.35024249  0.31320033  0.69852035    -0.01550
C2558       C  0.33585002  0.30082985  0.71849149     0.03420
C2559       C  0.32657538  0.35733858  0.76461921     0.38080
C2560       C  0.35849466  0.29814147  0.67608218     0.38070
C2561       C  0.32912962  0.27347711  0.71577270     0.36490
C2562       C  0.35494987  0.38181991  0.72432391     0.36490
N2563       N  0.32403759  0.25162797  0.71325509    -0.38330
N2564       N  0.36068140  0.40358237  0.72625871    -0.38330
N2565       N  0.36511860  0.28610507  0.65824158    -0.37770
N2566       N  0.32103389  0.37031982  0.78213354    -0.37780
C2567       C  0.20904696  0.34463303  0.82561588    -0.04440
C2568       C  0.20320692  0.32380708  0.80875430    -0.01560
C2569       C  0.22366150  0.31055367  0.79570114     0.03430
C2570       C  0.24992111  0.31774875  0.80004129    -0.04440
C2571       C  0.25570798  0.33780281  0.81777956    -0.01550
C2572       C  0.23532226  0.35154043  0.83011579     0.03420
C2573       C  0.17632417  0.31544661  0.80555540     0.38080
C2574       C  0.28267921  0.34306587  0.82485618     0.38070
C2575       C  0.24166000  0.37191667  0.84845932     0.36490
C2576       C  0.21782985  0.28909678  0.77839595     0.36490
N2577       N  0.24752620  0.38782428  0.86316843    -0.38330
N2578       N  0.21321460  0.27190608  0.76464806    -0.38330
N2579       N  0.30403381  0.34709050  0.83110737    -0.37770
N2580       N  0.15496441  0.30839895  0.80320749    -0.37780
C2581       C  0.85828794  0.16261831  0.08241625    -0.04440
C2582       C  0.85405993  0.15774842  0.05573911    -0.01560
C2583       C  0.83223536  0.16873130  0.04316405     0.03430
C2584       C  0.81547983  0.18641208  0.05647617    -0.04440
C2585       C  0.81824442  0.18955413  0.08337599    -0.01550
C2586       C  0.83955861  0.17772770  0.09639678     0.03420
C2587       C  0.87225688  0.14187441  0.04066559     0.38080
C2588       C  0.79766100  0.20253892  0.09797713     0.38070
C2589       C  0.84123835  0.18011637  0.12437592     0.36490
C2590       C  0.82696284  0.16109741  0.01653561     0.36490
N2591       N  0.84249727  0.18194503  0.14670005    -0.38330
N2592       N  0.82275050  0.15435216  0.99556084    -0.38330
N2593       N  0.78104042  0.21248713  0.10973063    -0.37770
N2594       N  0.88657188  0.12926247  0.02846155    -0.37780
C2595       C  0.69368672  0.19641117  0.94821510    -0.04440
C2596       C  0.67588947  0.17676227  0.95548537    -0.01560
C2597       C  0.66377222  0.16141929  0.93631059     0.03430
C2598       C  0.67010327  0.16522007  0.90990262    -0.04440
C2599       C  0.68769881  0.18504955  0.90267874    -0.01550
C2600       C  0.69867028  0.20123120  0.92171603     0.03420
C2601       C  0.67065939  0.17192692  0.98272262     0.38080
C2602       C  0.69598033  0.18773698  0.87590176     0.38070
C2603       C  0.71506981  0.22292700  0.91393922     0.36490
C2604       C  0.64577298  0.14096242  0.94388590     0.36490
N2605       N  0.72742850  0.24059986  0.90727126    -0.38330
N2606       N  0.63161363  0.12458659  0.95029182    -0.38330
N2607       N  0.70348440  0.18973555  0.85481574    -0.37770
N2608       N  0.66649096  0.16812173  0.00447096    -0.37780
C2609       C  0.69380028  0.30601763  0.03174336    -0.04440
C2610       C  0.69113569  0.30110970  0.05854283    -0.01560
C2611       C  0.67601905  0.31827722  0.07423120     0.03430
C2612       C  0.66350038  0.34050938  0.06319677    -0.04440
C2613       C  0.66401776  0.34377408  0.03600059    -0.01550
C2614       C  0.67921165  0.32679543  0.02045968     0.03420
C2615       C  0.70512177  0.27928502  0.07015895     0.38080
C2616       C  0.65036893  0.36567338  0.02394663     0.38070
C2617       C  0.68077431  0.33183935  0.99282866     0.36490
C2618       C  0.67322104  0.31299306  0.10172882     0.36490
N2619       N  0.68146630  0.33684128  0.97096289    -0.38330
N2620       N  0.67079053  0.30876794  0.12366055    -0.38330
N2621       N  0.63954647  0.38309153  0.01424566    -0.37770
N2622       N  0.71627716  0.26181064  0.07937218    -0.37780
C2623       C  0.70858778  0.30534626  0.92893063    -0.04440
C2624       C  0.71439282  0.32893536  0.91550355    -0.01560
C2625       C  0.69451957  0.34223368  0.90171733     0.03430
C2626       C  0.66946266  0.33114545  0.89951757    -0.04440
C2627       C  0.66444945  0.30630482  0.90968262    -0.01550
C2628       C  0.68338507  0.29376005  0.92512157     0.03420
C2629       C  0.74039596  0.34021900  0.91633448     0.38080
C2630       C  0.63873812  0.29467489  0.90610708     0.38070
C2631       C  0.67491304  0.27054995  0.93895502     0.36490
C2632       C  0.69959086  0.36776057  0.89042843     0.36490
N2633       N  0.66677842  0.25248717  0.94977791    -0.38330
N2634       N  0.70371162  0.38817385  0.88162651    -0.38330
N2635       N  0.61828879  0.28548399  0.90324402    -0.37770
N2636       N  0.76107376  0.34936022  0.91693239    -0.37780
C2637       C  0.82381177  0.31214444  0.04648526    -0.04440
C2638       C  0.83337385  0.33686871  0.03864277    -0.01560
C2639       C  0.84826742  0.35207813  0.05591026     0.03430
C2640       C  0.85406015  0.34248288  0.08090671    -0.04440
C2641       C  0.84588659  0.31722537  0.08824012    -0.01550
C2642       C  0.83047164  0.30230598  0.07125076     0.03420
C2643       C  0.82804096  0.34661314  0.01272164     0.38080
C2644       C  0.85232446  0.30698778  0.11377396     0.38070
C2645       C  0.81984805  0.27776553  0.08023065     0.36490
C2646       C  0.85799087  0.37745826  0.04790384     0.36490
N2647       N  0.81128818  0.25839889  0.08795847    -0.38330
N2648       N  0.86588819  0.39767351  0.04160404    -0.38330
N2649       N  0.85744988  0.29867287  0.13405420    -0.37770
N2650       N  0.82383009  0.35434227  0.99201684    -0.37780
C2651       C  0.81658116  0.06520847  0.18627576    -0.04440
C2652       C  0.82580790  0.05654833  0.16157334    -0.01560
C2653       C  0.84756995  0.06833410  0.14951430     0.03430
C2654       C  0.85977785  0.09051338  0.16067495    -0.04440
C2655       C  0.84961149  0.10011593  0.18463237    -0.01550
C2656       C  0.82854991  0.08738194  0.19739874     0.03420
C2657       C  0.81294177  0.03546946  0.14765297     0.38080
C2658       C  0.86073375  0.12305560  0.19678421     0.38070
C2659       C  0.81954824  0.09732203  0.22219334     0.36490
C2660       C  0.85700654  0.05694784  0.12536142     0.36490
N2661       N  0.81260010  0.10553907  0.24193681    -0.38330
N2662       N  0.86434827  0.04752548  0.10627689    -0.38330
N2663       N  0.86936808  0.14140719  0.20657208    -0.37770
N2664       N  0.80302852  0.01864571  0.13645224    -0.37780
C2665       C  0.67812282  0.10139240  0.31605281    -0.04440
C2666       C  0.66718282  0.08001896  0.30226953    -0.01560
C2667       C  0.68318037  0.06412652  0.28636531     0.03430
C2668       C  0.70992145  0.06993580  0.28296196    -0.04440
C2669       C  0.71949672  0.09390561  0.29239252    -0.01550
C2670       C  0.70395934  0.10932600  0.30933940     0.03420
C2671       C  0.63952428  0.07389795  0.30441188     0.38080
C2672       C  0.74592514  0.10199861  0.28601650     0.38070
C2673       C  0.71541336  0.13252224  0.32061738     0.36490
C2674       C  0.67232392  0.04116612  0.27399008     0.36490
N2675       N  0.72473371  0.15100490  0.32949565    -0.38330
N2676       N  0.66370237  0.02285779  0.26412653    -0.38330
N2677       N  0.76689282  0.10878193  0.28088283    -0.37770
N2678       N  0.61748071  0.06893193  0.30599967    -0.37780
C2679       C  0.69707925  0.96222823  0.17201126    -0.04440
C2680       C  0.67095850  0.95717770  0.17854811    -0.01560
C2681       C  0.65924641  0.93354532  0.17096024     0.03430
C2682       C  0.67331705  0.91553629  0.15505294    -0.04440
C2683       C  0.69901399  0.92219772  0.14662366    -0.01550
C2684       C  0.71036030  0.94582096  0.15443859     0.03420
C2685       C  0.65569084  0.97743268  0.19124932     0.38080
C2686       C  0.71488123  0.90436442  0.13117181     0.38070
C2687       C  0.73602227  0.95297305  0.14450325     0.36490
C2688       C  0.63263169  0.92839049  0.17942678     0.36490
N2689       N  0.75625907  0.95836202  0.13590745    -0.38330
N2690       N  0.61137867  0.92445497  0.18620700    -0.38330
N2691       N  0.72773597  0.89032155  0.11892353    -0.37770
N2692       N  0.64339610  0.99384828  0.20088518    -0.37780
C2693       C  0.83195698  0.10663292  0.33378740    -0.04440
C2694       C  0.84453474  0.09421830  0.31235042    -0.01560
C2695       C  0.83274388  0.07282455  0.29982246     0.03430
C2696       C  0.80783918  0.06388592  0.30778436    -0.04440
C2697       C  0.79499029  0.07653136  0.32880799    -0.01550
C2698       C  0.80673154  0.09777048  0.34143129     0.03420
C2699       C  0.86954860  0.10330443  0.30242869     0.38080
C2700       C  0.76891405  0.06869774  0.33722208     0.38070
C2701       C  0.79179848  0.11078615  0.36176856     0.36490
C2702       C  0.84674259  0.05977659  0.27890996     0.36490
N2703       N  0.77961943  0.12093353  0.37785584    -0.38330
N2704       N  0.85794123  0.04953102  0.26220981    -0.38330
N2705       N  0.74820872  0.06264561  0.34411222    -0.37770
N2706       N  0.88941780  0.11041420  0.29425083    -0.37780
C2707       C  0.08922742  0.91457654  0.42086391    -0.04440
C2708       C  0.09469465  0.93506311  0.43809996    -0.01560
C2709       C  0.07400625  0.94965341  0.44898969     0.03430
C2710       C  0.04776069  0.94347919  0.44299131    -0.04440
C2711       C  0.04230023  0.92337956  0.42531081    -0.01550
C2712       C  0.06305010  0.90911748  0.41400117     0.03420
C2713       C  0.12161327  0.94217979  0.44343163     0.38080
C2714       C  0.01540251  0.91811988  0.41802236     0.38070
C2715       C  0.05743752  0.89012749  0.39403511     0.36490
C2716       C  0.07991519  0.97190314  0.46525944     0.36490
N2717       N  0.05241219  0.87554754  0.37773010    -0.38330
N2718       N  0.08511745  0.98970054  0.47797911    -0.38330
N2719       N  0.99395321  0.91399882  0.41214435    -0.37770
N2720       N  0.14296172  0.94839442  0.44750610    -0.37780
C2721       C  0.46084649  0.81238639  0.50266807    -0.04440
C2722       C  0.45634195  0.80028344  0.52697264    -0.01560
C2723       C  0.44627324  0.81493937  0.54790355     0.03430
C2724       C  0.44141459  0.84205664  0.54504339    -0.04440
C2725       C  0.44775915  0.85453896  0.52135279    -0.01550
C2726       C  0.45683585  0.83969947  0.50009827     0.03420
C2727       C  0.46231510  0.77271602  0.53059786     0.38080
C2728       C  0.44355792  0.88248294  0.51822317     0.38070
C2729       C  0.46070949  0.85248438  0.47522042     0.36490
C2730       C  0.44126956  0.80207468  0.57255240     0.36490
N2731       N  0.46384946  0.86271433  0.45541249    -0.38330
N2732       N  0.43726138  0.79182200  0.59219536    -0.38330
N2733       N  0.44023491  0.90475824  0.51571161    -0.37770
N2734       N  0.46704967  0.75073254  0.53347825    -0.37780
C2735       C  0.32913820  0.93475439  0.50099024    -0.04440
C2736       C  0.34429385  0.91194691  0.49701221    -0.01560
C2737       C  0.35861935  0.90088311  0.51771985     0.03430
C2738       C  0.35870587  0.91323872  0.54216561    -0.04440
C2739       C  0.34354713  0.93602787  0.54615666    -0.01550
C2740       C  0.32827100  0.94638094  0.52577923     0.03420
C2741       C  0.34526234  0.90001122  0.47155074     0.38080
C2742       C  0.34317164  0.94843599  0.57142378     0.38070
C2743       C  0.31073493  0.96825870  0.53063875     0.36490
C2744       C  0.37325238  0.87679673  0.51382359     0.36490
N2745       N  0.29642737  0.98540458  0.53476266    -0.38330
N2746       N  0.38460885  0.85741531  0.51058806    -0.38330
N2747       N  0.34291034  0.95837702  0.59154759    -0.37770
N2748       N  0.34604684  0.89056299  0.45120591    -0.37780
C2749       C  0.34186530  0.05121672  0.41225944    -0.04440
C2750       C  0.34140515  0.04787368  0.43959336    -0.01560
C2751       C  0.32802693  0.02664926  0.45096392     0.03430
C2752       C  0.31743765  0.00655270  0.43540849    -0.04440
C2753       C  0.31832365  0.00959305  0.40806406    -0.01550
C2754       C  0.33013940  0.03178381  0.39664358     0.03420
C2755       C  0.35586124  0.06518274  0.45650374     0.38080
C2756       C  0.30773289  0.98984551  0.39106079     0.38070
C2757       C  0.33186339  0.03332158  0.36853941     0.36490
C2758       C  0.32475252  0.02610079  0.47893667     0.36490
N2759       N  0.33328031  0.03439224  0.34615754    -0.38330
N2760       N  0.32238931  0.02617173  0.50124920    -0.38330
N2761       N  0.29922055  0.97502843  0.37650319    -0.37770
N2762       N  0.36802206  0.07803103  0.47036912    -0.37780
C2763       C  0.25159231  0.93324088  0.44203339    -0.04440
C2764       C  0.25139332  0.92429149  0.41622780    -0.01560
C2765       C  0.22838417  0.91391894  0.40552277     0.03430
C2766       C  0.20637187  0.90887159  0.42154858    -0.04440
C2767       C  0.20762877  0.91515942  0.44821896    -0.01550
C2768       C  0.22971328  0.92834498  0.45815449     0.03420
C2769       C  0.27564992  0.92302356  0.40154990     0.38080
C2770       C  0.18623885  0.90834413  0.46545282     0.38070
C2771       C  0.22996777  0.93677412  0.48497265     0.36490
C2772       C  0.22804358  0.90740795  0.37812531     0.36490
N2773       N  0.23024855  0.94348218  0.50637722    -0.38330
N2774       N  0.22787750  0.90236223  0.35626580    -0.38330
N2775       N  0.16933135  0.90271085  0.47934262    -0.37770
N2776       N  0.29507041  0.92087471  0.39010573    -0.37780
C2777       C  0.70608022  0.93455908  0.29150630    -0.04440
C2778       C  0.71491210  0.91903907  0.31241219    -0.01560
C2779       C  0.69740734  0.90209076  0.32517000     0.03430
C2780       C  0.67101543  0.90089535  0.31719881    -0.04440
C2781       C  0.66295973  0.91438347  0.29468197    -0.01550
C2782       C  0.68026606  0.93173406  0.28232428     0.03420
C2783       C  0.74194052  0.92072886  0.32088640     0.38080
C2784       C  0.63672659  0.91083851  0.28449247     0.38070
C2785       C  0.67073350  0.94836633  0.26167609     0.36490
C2786       C  0.70694853  0.88489081  0.34546229     0.36490
N2787       N  0.66277768  0.96199777  0.24559867    -0.38330
N2788       N  0.71520150  0.87083194  0.36109194    -0.38330
N2789       N  0.61592770  0.90785922  0.27614511    -0.37770
N2790       N  0.76351843  0.92207006  0.32758917    -0.37780
C2791       C  0.52316902  0.79608352  0.42857407    -0.04440
C2792       C  0.54676148  0.80377612  0.44086213    -0.01560
C2793       C  0.56676134  0.81627416  0.42648407     0.03430
C2794       C  0.56463902  0.81888137  0.39926836    -0.04440
C2795       C  0.54346029  0.80657249  0.38665502    -0.01550
C2796       C  0.52181543  0.79760312  0.40113444     0.03420
C2797       C  0.55087625  0.79831734  0.46819047     0.38080
C2798       C  0.54413844  0.80193007  0.35894073     0.38070
C2799       C  0.49773651  0.79165601  0.38749851     0.36490
C2800       C  0.59029767  0.82496297  0.43955554     0.36490
N2801       N  0.47853886  0.78708662  0.37654387    -0.38330
N2802       N  0.60914655  0.83177479  0.44991067    -0.38330
N2803       N  0.54487053  0.79744084  0.33696441    -0.37770
N2804       N  0.55424616  0.79391232  0.48996244    -0.37780
C2805       C  0.52031061  0.94060102  0.30931751    -0.04440
C2806       C  0.51441484  0.91525272  0.31835922    -0.01560
C2807       C  0.53464236  0.89770172  0.32516684     0.03430
C2808       C  0.56078004  0.90634420  0.32651405    -0.04440
C2809       C  0.56636932  0.93275604  0.32013121    -0.01550
C2810       C  0.54634999  0.94950982  0.31058208     0.03420
C2811       C  0.48730914  0.90803513  0.32289938     0.38080
C2812       C  0.59258277  0.94289051  0.32373635     0.38070
C2813       C  0.55238225  0.97601858  0.30267583     0.36490
C2814       C  0.52796206  0.87110433  0.33178492     0.36490
N2815       N  0.55718678  0.99722027  0.29646069    -0.38330
N2816       N  0.52139841  0.85007570  0.33660386    -0.38330
N2817       N  0.61338064  0.95117511  0.32688881    -0.37770
N2818       N  0.46572867  0.90249880  0.32697001    -0.37780
C2819       C  0.44459536  0.94464643  0.24860773    -0.04440
C2820       C  0.44462414  0.91696984  0.24520654    -0.01560
C2821       C  0.42899334  0.90518086  0.22598008     0.03430
C2822       C  0.41293698  0.92051168  0.20945286    -0.04440
C2823       C  0.41253277  0.94795967  0.21283963    -0.01550
C2824       C  0.42866843  0.95993598  0.23164370     0.03420
C2825       C  0.46068129  0.89968682  0.26098549     0.38080
C2826       C  0.39553411  0.96423970  0.19692600     0.38070
C2827       C  0.42939879  0.98826214  0.23232145     0.36490
C2828       C  0.42886310  0.87678570  0.22408925     0.36490
N2829       N  0.42925791  0.01088041  0.23227813    -0.38330
N2830       N  0.42890898  0.85420346  0.22263372    -0.38330
N2831       N  0.38164812  0.97719827  0.18458220    -0.37770
N2832       N  0.47361197  0.88474333  0.27208482    -0.37780
C2833       C  0.45238078  0.01134237  0.32071220    -0.04440
C2834       C  0.44564281  0.00975592  0.34728871    -0.01560
C2835       C  0.43335644  0.03123093  0.35981402     0.03430
C2836       C  0.42666570  0.05405921  0.34558520    -0.04440
C2837       C  0.43385558  0.05565819  0.31908830    -0.01550
C2838       C  0.44776418  0.03498129  0.30720081     0.03420
C2839       C  0.45068221  0.98577820  0.36158667     0.38080
C2840       C  0.42690039  0.07853618  0.30377474     0.38070
C2841       C  0.45862481  0.03860300  0.28142917     0.36490
C2842       C  0.42623665  0.02915572  0.38698271     0.36490
N2843       N  0.46785277  0.04185720  0.26116803    -0.38330
N2844       N  0.42058638  0.02751018  0.40867106    -0.38330
N2845       N  0.42128470  0.09664819  0.29140486    -0.37770
N2846       N  0.45478704  0.96663854  0.37296160    -0.37780
C2847       C  0.41067914  0.69987458  0.41905523    -0.04440
C2848       C  0.40088924  0.72548659  0.42275997    -0.01560
C2849       C  0.41727023  0.74511963  0.43296015     0.03430
C2850       C  0.44333202  0.73909492  0.44056011    -0.04440
C2851       C  0.45257166  0.71309192  0.43816432    -0.01550
C2852       C  0.43650291  0.69373230  0.42711232     0.03420
C2853       C  0.37435196  0.73203301  0.41488575     0.38080
C2854       C  0.47855925  0.70610291  0.44736656     0.38070
C2855       C  0.44654569  0.66730169  0.42416483     0.36490
C2856       C  0.40760319  0.77183202  0.43440226     0.36490
N2857       N  0.45442626  0.64620833  0.42156422    -0.38330
N2858       N  0.39991327  0.79314192  0.43554898    -0.38330
N2859       N  0.49928178  0.70052241  0.45470556    -0.37770
N2860       N  0.35318541  0.73726041  0.40860902    -0.37780
C2861       C  0.24017415  0.80551678  0.32099917    -0.04440
C2862       C  0.21372831  0.80209424  0.31415336    -0.01560
C2863       C  0.19381948  0.81339350  0.32948756     0.03430
C2864       C  0.20042713  0.82851669  0.35130880    -0.04440
C2865       C  0.22673626  0.83002671  0.35935072    -0.01550
C2866       C  0.24666333  0.81900190  0.34392729     0.03420
C2867       C  0.20707645  0.78677022  0.29152011     0.38080
C2868       C  0.23327518  0.84227413  0.38378903     0.38070
C2869       C  0.27391895  0.82206685  0.35128103     0.36490
C2870       C  0.16662222  0.80788378  0.32387788     0.36490
N2871       N  0.29568016  0.82449038  0.35701414    -0.38330
N2872       N  0.14510961  0.80245955  0.31955297    -0.38330
N2873       N  0.23869154  0.85147655  0.40351103    -0.37770
N2874       N  0.20178039  0.77451360  0.27348008    -0.37780
C2875       C  0.34030331  0.70027949  0.33351804    -0.04440
C2876       C  0.31612682  0.69604588  0.32111687    -0.01560
C2877       C  0.30282811  0.71710269  0.30939469     0.03430
C2878       C  0.31352436  0.74243924  0.31053469    -0.04440
C2879       C  0.33837564  0.74638357  0.32183108    -0.01550
C2880       C  0.35194962  0.72516848  0.33299830     0.03420
C2881       C  0.30487579  0.67004321  0.32070571     0.38080
C2882       C  0.34929778  0.77247011  0.32325699     0.38070
C2883       C  0.37728616  0.72918495  0.34503535     0.36490
C2884       C  0.27804975  0.71279003  0.29637628     0.36490
N2885       N  0.39754625  0.73240367  0.35450430    -0.38330
N2886       N  0.25829892  0.70939305  0.28596947    -0.38330
N2887       N  0.35792508  0.79330154  0.32441063    -0.37770
N2888       N  0.29596667  0.64929521  0.32038122    -0.37780
C2889       C  0.30434785  0.81665384  0.24852315    -0.04440
C2890       C  0.31382511  0.80391092  0.22605250    -0.01560
C2891       C  0.32896199  0.81766958  0.20784420     0.03430
C2892       C  0.33172891  0.84508083  0.20998161    -0.04440
C2893       C  0.32103027  0.85818485  0.23168353    -0.01550
C2894       C  0.30827084  0.84389194  0.25136447     0.03420
C2895       C  0.30783172  0.77658407  0.22142450     0.38080
C2896       C  0.32470611  0.88613633  0.23474340     0.38070
C2897       C  0.30057496  0.85712024  0.27508544     0.36490
C2898       C  0.34194535  0.80328279  0.18718969     0.36490
N2899       N  0.29447179  0.86766895  0.29400015    -0.38330
N2900       N  0.35240686  0.79170431  0.17088476    -0.38330
N2901       N  0.32761937  0.90841274  0.23720873    -0.37770
N2902       N  0.30306223  0.75482845  0.21769574    -0.37780
C2903       C  0.46049556  0.03703015  0.07390924    -0.04440
C2904       C  0.44663472  0.02448473  0.09403521    -0.01560
C2905       C  0.42844924  0.03869168  0.10934799     0.03430
C2906       C  0.42530633  0.06605919  0.10572702    -0.04440
C2907       C  0.44288707  0.07904137  0.08865949    -0.01550
C2908       C  0.45976341  0.06449644  0.07231078     0.03420
C2909       C  0.45042915  0.99667703  0.09827954     0.38080
C2910       C  0.44356886  0.10738180  0.08761258     0.38070
C2911       C  0.47555934  0.07763525  0.05288739     0.36490
C2912       C  0.41175655  0.02459647  0.12724784     0.36490
N2913       N  0.48820945  0.08804768  0.03737947    -0.38330
N2914       N  0.39834670  0.01322347  0.14137829    -0.38330
N2915       N  0.44420122  0.12999143  0.08688712    -0.37770
N2916       N  0.45384715  0.97462332  0.10218416    -0.37780
C2917       C  0.57391142  0.05821449  0.95566949    -0.04440
C2918       C  0.59460404  0.04627479  0.94171167    -0.01560
C2919       C  0.60604218  0.05918167  0.92045786     0.03430
C2920       C  0.59776388  0.08490905  0.91346774    -0.04440
C2921       C  0.57834171  0.09751627  0.92899188    -0.01550
C2922       C  0.56649038  0.08410842  0.94986777     0.03420
C2923       C  0.60330692  0.01984435  0.94803780     0.38080
C2924       C  0.57066319  0.12447531  0.92421256     0.38070
C2925       C  0.54697499  0.09713597  0.96587316     0.36490
C2926       C  0.62569945  0.04500765  0.90551829     0.36490
N2927       N  0.53142714  0.10749448  0.97866011    -0.38330
N2928       N  0.64140264  0.03353852  0.89388203    -0.38330
N2929       N  0.56448333  0.14599820  0.92059262    -0.37770
N2930       N  0.61051873  0.99887022  0.95282482    -0.37780
C2931       C  0.55856892  0.93801643  0.05853082    -0.04440
C2932       C  0.56087570  0.91169381  0.05044116    -0.01560
C2933       C  0.57807072  0.89436694  0.06334365     0.03430
C2934       C  0.59346148  0.90338457  0.08404709    -0.04440
C2935       C  0.59191175  0.92988023  0.09149458    -0.01550
C2936       C  0.57413356  0.94703654  0.07912632     0.03420
C2937       C  0.54600371  0.90243226  0.02845495     0.38080
C2938       C  0.61024076  0.94019019  0.11014932     0.38070
C2939       C  0.57315367  0.97442073  0.08640666     0.36490
C2940       C  0.58045105  0.86743044  0.05482975     0.36490
N2941       N  0.57243249  0.99627284  0.09213385    -0.38330
N2942       N  0.58244218  0.84605793  0.04775925    -0.38330
N2943       N  0.62512949  0.94931228  0.12427756    -0.37770
N2944       N  0.53439964  0.89460512  0.01091691    -0.37780
C2945       C  0.43297270  0.94415519  0.05166801    -0.04440
C2946       C  0.40921386  0.95478109  0.06147693    -0.01560
C2947       C  0.39642824  0.94292102  0.08268055     0.03430
C2948       C  0.40761377  0.92060346  0.09509439    -0.04440
C2949       C  0.43135947  0.90993283  0.08484738    -0.01550
C2950       C  0.44326402  0.92113356  0.06284253     0.03420
C2951       C  0.39849887  0.97907471  0.05106561     0.38080
C2952       C  0.44470659  0.88799808  0.09717188     0.38070
C2953       C  0.46634108  0.90876957  0.05169714     0.36490
C2954       C  0.37186372  0.95439591  0.09154819     0.36490
N2955       N  0.48463820  0.89863909  0.04294998    -0.38330
N2956       N  0.35232218  0.96375511  0.09837175    -0.38330
N2957       N  0.45560609  0.87063414  0.10689115    -0.37770
N2958       N  0.38985786  0.99843834  0.04299019    -0.37780
C2959       C  0.44496195  0.05708519  0.94380297    -0.04440
C2960       C  0.41730649  0.05472994  0.94477220    -0.01560
C2961       C  0.40126040  0.07169700  0.93015897     0.03430
C2962       C  0.41265818  0.09141062  0.91467480    -0.04440
C2963       C  0.44032591  0.09331255  0.91316951    -0.01550
C2964       C  0.45638340  0.07583210  0.92722902     0.03420
C2965       C  0.40517693  0.03449935  0.96051713     0.38080
C2966       C  0.45247854  0.11423652  0.89840544     0.38070
C2967       C  0.48464272  0.07785529  0.92512601     0.36490
C2968       C  0.37300110  0.06847965  0.93083905     0.36490
N2969       N  0.50713779  0.07948844  0.92295107    -0.38330
N2970       N  0.35049107  0.06588858  0.93144120    -0.38330
N2971       N  0.46218657  0.13098090  0.88677008    -0.37770
N2972       N  0.39547296  0.01846689  0.97311451    -0.37780
C2973       C  0.07937328  0.83006902  0.15935156    -0.04440
C2974       C  0.05188812  0.83099515  0.15426409    -0.01560
C2975       C  0.03416814  0.81646829  0.16956453     0.03430
C2976       C  0.04324266  0.79991308  0.18951879    -0.04440
C2977       C  0.07049186  0.79702970  0.19326394    -0.01550
C2978       C  0.08848265  0.81204500  0.17844778     0.03420
C2979       C  0.04099454  0.84787340  0.13420616     0.38080
C2980       C  0.07992996  0.77914803  0.21310649     0.38070
C2981       C  0.11629576  0.80883135  0.18322216     0.36490
C2982       C  0.00625188  0.82039783  0.16592040     0.36490
N2983       N  0.13845275  0.80615486  0.18726966    -0.38330
N2984       N  0.98423141  0.82451695  0.16250036    -0.38330
N2985       N  0.08739415  0.76486507  0.22895305    -0.37770
N2986       N  0.03203719  0.86120551  0.11829443    -0.37780
C2987       C  0.96551926  0.70119798  0.31411151    -0.04440
C2988       C  0.97442496  0.68531721  0.33450237    -0.01560
C2989       C  0.95728472  0.66771716  0.34679132     0.03430
C2990       C  0.93040904  0.66647745  0.33921034    -0.04440
C2991       C  0.92103745  0.68508440  0.32082099    -0.01550
C2992       C  0.93854934  0.70274491  0.30880103     0.03420
C2993       C  0.00121334  0.68785712  0.34343675     0.38080
C2994       C  0.89367990  0.68586572  0.31342428     0.38070
C2995       C  0.92906037  0.72201735  0.29026628     0.36490
C2996       C  0.96825043  0.65018721  0.36623120     0.36490
N2997       N  0.92157106  0.73743582  0.27551021    -0.38330
N2998       N  0.97726878  0.63628810  0.38162545    -0.38330
N2999       N  0.87201166  0.68658634  0.30689537    -0.37770
N3000       N  0.02223687  0.69034146  0.35133653    -0.37780
C3001       C  0.95268470  0.68984996  0.19540017    -0.04440
C3002       C  0.95420850  0.68820209  0.16815225    -0.01560
C3003       C  0.93454117  0.67508402  0.15412495     0.03430
C3004       C  0.91318754  0.66332282  0.16723468    -0.04440
C3005       C  0.91204146  0.66441057  0.19453156    -0.01550
C3006       C  0.93197834  0.67689033  0.20851789     0.03420
C3007       C  0.97711544  0.69808338  0.15467648     0.38080
C3008       C  0.88987358  0.65337577  0.20845923     0.38070
C3009       C  0.93134642  0.67510077  0.23654280     0.36490
C3010       C  0.93711042  0.67291207  0.12625765     0.36490
N3011       N  0.93068450  0.67228558  0.25877296    -0.38330
N3012       N  0.93972225  0.67151775  0.10403587    -0.38330
N3013       N  0.87221267  0.64470776  0.21959359    -0.37770
N3014       N  0.99545262  0.70579815  0.14393041    -0.37780
C3015       C  0.09036035  0.83364667  0.34728259    -0.04440
C3016       C  0.07037016  0.81863135  0.35925642    -0.01560
C3017       C  0.05045763  0.80711699  0.34409725     0.03430
C3018       C  0.05059998  0.81003519  0.31683912    -0.04440
C3019       C  0.07149448  0.82363817  0.30483155    -0.01550
C3020       C  0.09080916  0.83576978  0.31984281     0.03420
C3021       C  0.06925847  0.81608535  0.38726452     0.38080
C3022       C  0.07386412  0.82475601  0.27672734     0.38070
C3023       C  0.11146930  0.85000487  0.30648095     0.36490
C3024       C  0.02932459  0.79311311  0.35672270     0.36490
N3025       N  0.12783331  0.86126397  0.29570042    -0.38330
N3026       N  0.01247205  0.78195252  0.36682608    -0.38330
N3027       N  0.07599665  0.82597463  0.25441494    -0.37770
N3028       N  0.06822913  0.81412460  0.40960809    -0.37780
C3029       C  0.06637189  0.69293699  0.30714939    -0.04440
C3030       C  0.08245742  0.70560136  0.32535381    -0.01560
C3031       C  0.09254053  0.69167790  0.34684536     0.03430
C3032       C  0.08736709  0.66453429  0.35006657    -0.04440
C3033       C  0.07075392  0.65204241  0.33209459    -0.01550
C3034       C  0.06066031  0.66597000  0.31065292     0.03420
C3035       C  0.08870983  0.73309359  0.32207535     0.38080
C3036       C  0.06270576  0.62513474  0.33600702     0.38070
C3037       C  0.04276813  0.65258945  0.29333255     0.36490
C3038       C  0.10683843  0.70603311  0.36645576     0.36490
N3039       N  0.02852638  0.64175055  0.27970405    -0.38330
N3040       N  0.11808301  0.71758266  0.38210655    -0.38330
N3041       N  0.05549891  0.60394662  0.33911318    -0.37770
N3042       N  0.09371166  0.75499683  0.31953399    -0.37780
C3043       C  0.81161067  0.70453999  0.43661230    -0.04440
C3044       C  0.81291030  0.70580102  0.40944085    -0.01560
C3045       C  0.82752121  0.68685281  0.39572466     0.03430
C3046       C  0.84095254  0.66657747  0.40930495    -0.04440
C3047       C  0.83782533  0.66439215  0.43647144    -0.01550
C3048       C  0.82331367  0.68332032  0.45003150     0.03420
C3049       C  0.79997776  0.72707828  0.39572023     0.38080
C3050       C  0.84860641  0.64215087  0.45058747     0.38070
C3051       C  0.82008970  0.68065128  0.47795356     0.36490
C3052       C  0.82880390  0.68874551  0.36771520     0.36490
N3053       N  0.81759995  0.67844033  0.50016446    -0.38330
N3054       N  0.82922576  0.69041061  0.34534775    -0.38330
N3055       N  0.85711345  0.62443797  0.46187844    -0.37770
N3056       N  0.78959381  0.74402800  0.38481962    -0.37780
C3057       C  0.70737071  0.79053269  0.42752669    -0.04440
C3058       C  0.69506137  0.77804314  0.40661152    -0.01560
C3059       C  0.67945509  0.79271533  0.38919935     0.03430
C3060       C  0.67601048  0.82000179  0.39298585    -0.04440
C3061       C  0.69204217  0.83270601  0.41168841    -0.01550
C3062       C  0.70808716  0.81787048  0.42841974     0.03420
C3063       C  0.69868524  0.75015479  0.40296949     0.38080
C3064       C  0.69180312  0.86093691  0.41455204     0.38070
C3065       C  0.72524626  0.83054658  0.44687044     0.36490
C3066       C  0.66616824  0.77937385  0.36832515     0.36490
N3067       N  0.73915033  0.84051544  0.46146308    -0.38330
N3068       N  0.65560278  0.76896125  0.35147839    -0.38330
N3069       N  0.69168001  0.88342414  0.41704077    -0.37770
N3070       N  0.70196918  0.72801994  0.39956781    -0.37780
C3071       C  0.69575910  0.82156297  0.55052482    -0.04440
C3072       C  0.69383139  0.82067127  0.57782368    -0.01560
C3073       C  0.68113808  0.84105760  0.59129841     0.03430
C3074       C  0.66881617  0.86164565  0.57741204    -0.04440
C3075       C  0.67090278  0.86269671  0.55018799    -0.01550
C3076       C  0.68401744  0.84266202  0.53676892     0.03420
C3077       C  0.70316144  0.79790563  0.59202718     0.38080
C3078       C  0.66004553  0.88478772  0.53586113     0.38070
C3079       C  0.68440019  0.84372077  0.50865715     0.36490
C3080       C  0.67983796  0.84005387  0.61941887     0.36490
N3081       N  0.68367154  0.84488266  0.48627404    -0.38330
N3082       N  0.67879302  0.83918284  0.64182646    -0.38330
N3083       N  0.65143451  0.90237614  0.52445702    -0.37770
N3084       N  0.71040868  0.77978486  0.60351123    -0.37780
C3085       C  0.68923795  0.69427505  0.45291313    -0.04440
C3086       C  0.66488850  0.70343755  0.44308673    -0.01560
C3087       C  0.65051004  0.68855346  0.42508310     0.03430
C3088       C  0.65975696  0.66360862  0.41680785    -0.04440
C3089       C  0.68383622  0.65409098  0.42763835    -0.01550
C3090       C  0.69852822  0.66954360  0.44511833     0.03420
C3091       C  0.65488214  0.72911980  0.45028829     0.38080
C3092       C  0.69402931  0.62836658  0.42116919     0.38070
C3093       C  0.72311215  0.65971486  0.45554674     0.36490
C3094       C  0.62632432  0.69977961  0.41499582     0.36490
N3095       N  0.74271700  0.65189210  0.46386130    -0.38330
N3096       N  0.60719093  0.70904597  0.40702847    -0.38330
N3097       N  0.70232923  0.60784282  0.41627050    -0.37770
N3098       N  0.64643438  0.74945067  0.45568662    -0.37780
C3099       C  0.80771089  0.72942503  0.56075999    -0.04440
C3100       C  0.83405672  0.72292873  0.55417250    -0.01560
C3101       C  0.84887188  0.70634946  0.57008728     0.03430
C3102       C  0.84012596  0.70024492  0.59530009    -0.04440
C3103       C  0.81510679  0.70915116  0.60346414    -0.01550
C3104       C  0.79850993  0.72293468  0.58586262     0.03420
C3105       C  0.84674629  0.73361487  0.53119693     0.38080
C3106       C  0.80568597  0.70228142  0.62909999     0.38070
C3107       C  0.77185164  0.72933485  0.59321045     0.36490
C3108       C  0.87262207  0.69450073  0.55957958     0.36490
N3109       N  0.75049938  0.73426327  0.59910812    -0.38330
N3110       N  0.89115021  0.68476387  0.55080278    -0.38330
N3111       N  0.79817770  0.69671228  0.64956509    -0.37770
N3112       N  0.85730795  0.74200439  0.51314133    -0.37780
C3113       C  0.19623335  0.06089938  0.80162205    -0.04440
C3114       C  0.18139111  0.08385664  0.79646595    -0.01560
C3115       C  0.17363504  0.10033241  0.81696932     0.03430
C3116       C  0.17795706  0.09260733  0.84284009    -0.04440
C3117       C  0.19192444  0.06952019  0.84827133    -0.01550
C3118       C  0.20118212  0.05372214  0.82790165     0.03420
C3119       C  0.17454706  0.09099801  0.77006029     0.38080
C3120       C  0.19922724  0.06346921  0.87483025     0.38070
C3121       C  0.21747467  0.03130482  0.83457465     0.36490
C3122       C  0.16373064  0.12636273  0.81132159     0.36490
N3123       N  0.23048162  0.01368403  0.84058011    -0.38330
N3124       N  0.15681727  0.14741345  0.80647756    -0.38330
N3125       N  0.20589340  0.05878538  0.89576867    -0.37770
N3126       N  0.16900198  0.09672021  0.74903322    -0.37780
C3127       C  0.21692935  0.95104297  0.68981747    -0.04440
C3128       C  0.21640265  0.95437710  0.66257210    -0.01560
C3129       C  0.19972096  0.93870552  0.64715596     0.03430
C3130       C  0.18353357  0.91954222  0.65885189    -0.04440
C3131       C  0.18270885  0.91769669  0.68615767    -0.01550
C3132       C  0.19866892  0.93376127  0.70142174     0.03420
C3133       C  0.23406274  0.97270612  0.65021386     0.38080
C3134       C  0.16674089  0.89795627  0.69889422     0.38070
C3135       C  0.19626450  0.93174756  0.72934733     0.36490
C3136       C  0.19927493  0.94232847  0.61926639     0.36490
N3137       N  0.19343243  0.92906313  0.75142083    -0.38330
N3138       N  0.19883784  0.94526025  0.59700842    -0.38330
N3139       N  0.15415870  0.88223018  0.70912293    -0.37770
N3140       N  0.24819289  0.98731272  0.64035417    -0.37780
C3141       C  0.30143018  0.06686100  0.67809743    -0.04440
C3142       C  0.32186945  0.05479653  0.66397817    -0.01560
C3143       C  0.34196568  0.07006262  0.65282657     0.03430
C3144       C  0.34153121  0.09783289  0.65488965    -0.04440
C3145       C  0.32033215  0.10993359  0.66793272    -0.01550
C3146       C  0.30013397  0.09462266  0.67878039     0.03420
C3147       C  0.32286813  0.02661802  0.66113221     0.38080
C3148       C  0.31912869  0.13817460  0.67051122     0.38070
C3149       C  0.27768292  0.10765984  0.69051481     0.36490
C3150       C  0.36402069  0.05667789  0.64073007     0.36490
N3151       N  0.25979265  0.11805354  0.69982471    -0.38330
N3152       N  0.38165350  0.04594273  0.63131473    -0.38330
N3153       N  0.31810203  0.16067141  0.67276606    -0.37770
N3154       N  0.32412364  0.00426142  0.65798330    -0.37780
C3155       C  0.32689486  0.94843837  0.68881141    -0.04440
C3156       C  0.35419676  0.95233741  0.68934453    -0.01560
C3157       C  0.37054198  0.93949436  0.67111260     0.03430
C3158       C  0.35939409  0.92362336  0.65157719    -0.04440
C3159       C  0.33184398  0.92103563  0.65041976    -0.01550
C3160       C  0.31590560  0.93231984  0.66961229     0.03420
C3161       C  0.36545470  0.96877730  0.70920158     0.38080
C3162       C  0.31954162  0.90726799  0.62908158     0.38070
C3163       C  0.28823098  0.92609548  0.67004450     0.36490
C3164       C  0.39875825  0.94174748  0.67327679     0.36490
N3165       N  0.26649205  0.91988090  0.66997166    -0.38330
N3166       N  0.42128327  0.94346538  0.67510070    -0.38330
N3167       N  0.30968440  0.89645602  0.61204797    -0.37770
N3168       N  0.37441674  0.98189626  0.72507462    -0.37780
C3169       C  0.32252356  0.09016828  0.84344416    -0.04440
C3170       C  0.29783583  0.09955135  0.83548212    -0.01560
C3171       C  0.28246477  0.08461912  0.81862621     0.03430
C3172       C  0.29141301  0.05978620  0.80988069    -0.04440
C3173       C  0.31480207  0.04918856  0.82021971    -0.01550
C3174       C  0.33050366  0.06453667  0.83681621     0.03420
C3175       C  0.28888055  0.12544257  0.84323562     0.38080
C3176       C  0.32338750  0.02322492  0.81275777     0.38070
C3177       C  0.35482735  0.05409471  0.84713759     0.36490
C3178       C  0.25797746  0.09582680  0.80935010     0.36490
N3179       N  0.37417194  0.04580969  0.85560884    -0.38330
N3180       N  0.23892846  0.10569090  0.80196186    -0.38330
N3181       N  0.33017673  0.00243333  0.80688053    -0.37770
N3182       N  0.28163382  0.14601783  0.84934245    -0.37780
C3183       C  0.08440784  0.46069192  0.04476326    -0.04440
C3184       C  0.07982372  0.43373277  0.04199747    -0.01560
C3185       C  0.09165985  0.41569303  0.05909102     0.03430
C3186       C  0.11213949  0.42365406  0.07554092    -0.04440
C3187       C  0.11973961  0.45019302  0.07535056    -0.01550
C3188       C  0.10488077  0.46889466  0.06115358     0.03420
C3189       C  0.06402592  0.42437933  0.02071254     0.38080
C3190       C  0.14232563  0.45832044  0.09016331     0.38070
C3191       C  0.11059392  0.49650042  0.06330311     0.36490
C3192       C  0.08091693  0.38965648  0.06127704     0.36490
N3193       N  0.11515130  0.51856465  0.06496926    -0.38330
N3194       N  0.07111741  0.36944893  0.06352727    -0.38330
N3195       N  0.16060416  0.46485332  0.10162175    -0.37770
N3196       N  0.05260424  0.41657466  0.00302283    -0.37780
C3197       C  0.05947758  0.55885205  0.94817225    -0.04440
C3198       C  0.04863906  0.58291403  0.93970609    -0.01560
C3199       C  0.06172088  0.59825875  0.92097636     0.03430
C3200       C  0.08615771  0.58975635  0.91058300    -0.04440
C3201       C  0.09863483  0.56761073  0.92234876    -0.01550
C3202       C  0.08546709  0.55268004  0.94132009     0.03420
C3203       C  0.02349997  0.59159371  0.94993339     0.38080
C3204       C  0.12494598  0.55938012  0.91502906     0.38070
C3205       C  0.09870966  0.53054362  0.95315633     0.36490
C3206       C  0.04915153  0.62219504  0.91208482     0.36490
N3207       N  0.11012789  0.51341917  0.96261781    -0.38330
N3208       N  0.03892248  0.64125368  0.90518893    -0.38330
N3209       N  0.14588251  0.55261334  0.90938026    -0.37770
N3210       N  0.00348993  0.59855194  0.95805900    -0.37780
C3211       C  0.91228010  0.58971811  0.08868571    -0.04440
C3212       C  0.91892200  0.56336627  0.09509194    -0.01560
C3213       C  0.94156913  0.55166817  0.08467138     0.03430
C3214       C  0.95767138  0.56579654  0.06738413    -0.04440
C3215       C  0.95276070  0.59245113  0.06308831    -0.01550
C3216       C  0.92926973  0.60392920  0.07196225     0.03420
C3217       C  0.90239666  0.54746394  0.11179766     0.38080
C3218       C  0.97317710  0.60855563  0.05187231     0.38070
C3219       C  0.92267668  0.63000664  0.06288863     0.36490
C3220       C  0.94848147  0.52513405  0.09245673     0.36490
N3221       N  0.91733785  0.65057441  0.05499144    -0.38330
N3222       N  0.95402096  0.50421802  0.09923671    -0.38330
N3223       N  0.98961653  0.62143655  0.04324025    -0.37770
N3224       N  0.88960547  0.53452731  0.12517446    -0.37780
C3225       C  0.09907899  0.42515570  0.90332565    -0.04440
C3226       C  0.07407481  0.42989519  0.89266010    -0.01560
C3227       C  0.05493380  0.44368754  0.90710937     0.03430
C3228       C  0.06072434  0.45274492  0.93246410    -0.04440
C3229       C  0.08597115  0.44755181  0.94288951    -0.01550
C3230       C  0.10505662  0.43447312  0.92810889     0.03420
C3231       C  0.06804013  0.42049425  0.86684491     0.38080
C3232       C  0.09372658  0.45635593  0.96834124     0.38070
C3233       C  0.13166736  0.43257728  0.93780758     0.36490
C3234       C  0.02918360  0.44794283  0.89591413     0.36490
N3235       N  0.15270022  0.43217661  0.94603676    -0.38330
N3236       N  0.00869567  0.45135740  0.88687444    -0.38330
N3237       N  0.10226183  0.46245687  0.98813464    -0.37770
N3238       N  0.06328077  0.41306592  0.84622447    -0.37780
C3239       C  0.92355617  0.43013080  0.07912431    -0.04440
C3240       C  0.91251936  0.45434491  0.07039161    -0.01560
C3241       C  0.92702590  0.47113098  0.05392163     0.03430
C3242       C  0.95274844  0.46426166  0.04648623    -0.04440
C3243       C  0.96182192  0.43868498  0.05161216    -0.01550
C3244       C  0.94742230  0.42161290  0.06756245     0.03420
C3245       C  0.88652254  0.46268228  0.07843636     0.38080
C3246       C  0.98632716  0.42980700  0.04049475     0.38070
C3247       C  0.95775833  0.39539750  0.07186189     0.36490
C3248       C  0.91594464  0.49606470  0.04583431     0.36490
N3249       N  0.96620239  0.37457870  0.07513373    -0.38330
N3250       N  0.90701943  0.51589541  0.03934455    -0.38330
N3251       N  0.00573702  0.42216381  0.03174851    -0.37770
N3252       N  0.86577491  0.46950515  0.08466398    -0.37780
C3253       C  0.20009305  0.79892779  0.04979592    -0.04440
C3254       C  0.19921205  0.79588804  0.07696913    -0.01560
C3255       C  0.18054911  0.80992575  0.09174943     0.03430
C3256       C  0.16280496  0.82761972  0.07953177    -0.04440
C3257       C  0.16112060  0.82736595  0.05211168    -0.01550
C3258       C  0.17934009  0.81267732  0.03741776     0.03420
C3259       C  0.21778518  0.77894047  0.09009454     0.38080
C3260       C  0.14161410  0.84304070  0.03861030     0.38070
C3261       C  0.17672183  0.81184247  0.00937499     0.36490
C3262       C  0.18003686  0.80615125  0.11966773     0.36490
N3263       N  0.17446865  0.81114358  0.98706106    -0.38330
N3264       N  0.17987789  0.80305391  0.14190507    -0.38330
N3265       N  0.12609856  0.85545226  0.02767728    -0.37770
N3266       N  0.23204766  0.76519596  0.10107039    -0.37780
C3267       C  0.19368377  0.69073510  0.94270788    -0.04440
C3268       C  0.17933120  0.66785725  0.94916576    -0.01560
C3269       C  0.16527544  0.65441217  0.92983548     0.03430
C3270       C  0.16293376  0.66509175  0.90471610    -0.04440
C3271       C  0.17446518  0.68935656  0.89916937    -0.01550
C3272       C  0.19221031  0.70031250  0.91679027     0.03420
C3273       C  0.17896563  0.65769990  0.97547978     0.38080
C3274       C  0.16766540  0.70352086  0.87566684     0.38070
C3275       C  0.21052893  0.71957153  0.90696140     0.36490
C3276       C  0.15208291  0.63023239  0.93628694     0.36490
N3277       N  0.22526575  0.73459044  0.89873191    -0.38330
N3278       N  0.14164525  0.61103762  0.94194316    -0.38330
N3279       N  0.16184752  0.71522241  0.85728204    -0.37770
N3280       N  0.17859927  0.64944714  0.99640501    -0.37780
C3281       C  0.29772995  0.69628115  0.94145914    -0.04440
C3282       C  0.32381711  0.70477853  0.93819922    -0.01560
C3283       C  0.34186700  0.68952289  0.92356060     0.03430
C3284       C  0.33366411  0.66605944  0.91163871    -0.04440
C3285       C  0.30713019  0.65847963  0.91385812    -0.01550
C3286       C  0.28944668  0.67335843  0.92869972     0.03420
C3287       C  0.33226760  0.72864261  0.95060443     0.38080
C3288       C  0.29800285  0.63437460  0.90210009     0.38070
C3289       C  0.26268324  0.66424004  0.93135265     0.36490
C3290       C  0.36871769  0.69808625  0.92057199     0.36490
N3291       N  0.24170950  0.65599946  0.93313943    -0.38330
N3292       N  0.39017194  0.70489469  0.91816494    -0.38330
N3293       N  0.29063115  0.61520163  0.89285016    -0.37770
N3294       N  0.33899664  0.74770884  0.96052449    -0.37780
C3295       C  0.34390719  0.67797449  0.09673232    -0.04440
C3296       C  0.32167062  0.68925364  0.10897131    -0.01560
C3297       C  0.30058361  0.69905567  0.09390900     0.03430
C3298       C  0.30291322  0.70055571  0.06670041    -0.04440
C3299       C  0.32641762  0.69207844  0.05472931    -0.01550
C3300       C  0.34613316  0.67973235  0.06937577     0.03420
C3301       C  0.31997882  0.69060280  0.13691461     0.38080
C3302       C  0.33041343  0.69578279  0.02705063     0.38070
C3303       C  0.36858396  0.66858639  0.05584214     0.36490
C3304       C  0.27586896  0.70560363  0.10628385     0.36490
N3305       N  0.38627337  0.65957406  0.04489158    -0.38330
N3306       N  0.25611739  0.71053993  0.11625571    -0.38330
N3307       N  0.33377798  0.69861955  0.00503560    -0.37770
N3308       N  0.31828053  0.69278567  0.15915602    -0.37780
C3309       C  0.30894005  0.81536352  0.05919228    -0.04440
C3310       C  0.32217955  0.83895114  0.05305038    -0.01560
C3311       C  0.33268520  0.85457004  0.07297881     0.03430
C3312       C  0.32922923  0.84734280  0.09913636    -0.04440
C3313       C  0.31490322  0.82485330  0.10530760    -0.01550
C3314       C  0.30653052  0.80798835  0.08558685     0.03420
C3315       C  0.32580702  0.84691056  0.02624753     0.38080
C3316       C  0.30630119  0.82044419  0.13174957     0.38070
C3317       C  0.29590507  0.78294035  0.09300224     0.36490
C3318       C  0.34654267  0.87839888  0.06656044     0.36490
N3319       N  0.28840389  0.76271880  0.09957314    -0.38330
N3320       N  0.35733766  0.89748249  0.06116714    -0.38330
N3321       N  0.29797881  0.81722853  0.15238107    -0.37770
N3322       N  0.32867034  0.85339558  0.00490995    -0.37780
C3323       C  0.46307121  0.68670473  0.70135157    -0.04440
C3324       C  0.46867385  0.66377652  0.68719583    -0.01560
C3325       C  0.44809746  0.64962975  0.67549970     0.03430
C3326       C  0.42187924  0.65838969  0.67798492    -0.04440
C3327       C  0.41618573  0.68000184  0.69392870    -0.01550
C3328       C  0.43667607  0.69449440  0.70504848     0.03420
C3329       C  0.49559384  0.65501029  0.68442980     0.38080
C3330       C  0.38917653  0.68702907  0.69940485     0.38070
C3331       C  0.43051598  0.71841081  0.71892572     0.36490
C3332       C  0.45387581  0.62617613  0.66079978     0.36490
N3333       N  0.42529406  0.73761337  0.72962197    -0.38330
N3334       N  0.45850393  0.60731968  0.64927930    -0.38330
N3335       N  0.36774086  0.69245336  0.70450626    -0.37770
N3336       N  0.51709319  0.64796231  0.68234647    -0.37780
C3337       C  0.44759913  0.84880337  0.65354263    -0.04440
C3338       C  0.44019983  0.84463910  0.67962452    -0.01560
C3339       C  0.45532285  0.82786931  0.69561529     0.03430
C3340       C  0.47727865  0.81467458  0.68516513    -0.04440
C3341       C  0.48518683  0.81986147  0.65931801    -0.01550
C3342       C  0.47066343  0.83722745  0.64377964     0.03420
C3343       C  0.41702676  0.85756510  0.68984644     0.38080
C3344       C  0.50795868  0.80690788  0.64815149     0.38070
C3345       C  0.47891173  0.84223472  0.61723956     0.36490
C3346       C  0.44764173  0.82328160  0.72230648     0.36490
N3347       N  0.48573314  0.84617524  0.59618001    -0.38330
N3348       N  0.44150561  0.81967993  0.74363111    -0.38330
N3349       N  0.52578382  0.79673129  0.63850326    -0.37770
N3350       N  0.39856177  0.86799714  0.69793827    -0.37780
C3351       C  0.41688914  0.67148292  0.83243460    -0.04440
C3352       C  0.44213385  0.66562419  0.82293431    -0.01560
C3353       C  0.45707630  0.68498129  0.81057388     0.03430
C3354       C  0.44696092  0.71057782  0.80765857    -0.04440
C3355       C  0.42134478  0.71638181  0.81635769    -0.01550
C3356       C  0.40627572  0.69681616  0.82875074     0.03420
C3357       C  0.45259602  0.63929935  0.82485730     0.38080
C3358       C  0.41046516  0.74230091  0.81222184     0.38070
C3359       C  0.38014217  0.70282552  0.83816406     0.36490
C3360       C  0.48278167  0.67800318  0.80056949     0.36490
N3361       N  0.35925459  0.70752013  0.84568344    -0.38330
N3362       N  0.50295100  0.67111660  0.79279754    -0.38330
N3363       N  0.40177589  0.76298171  0.80877795    -0.37770
N3364       N  0.46154405  0.61850614  0.82563099    -0.37780
C3365       C  0.58212612  0.67857030  0.83856211    -0.04440
C3366       C  0.56498161  0.69649149  0.85049475    -0.01560
C3367       C  0.54855922  0.71256054  0.83548854     0.03430
C3368       C  0.54875958  0.71073621  0.80803924    -0.04440
C3369       C  0.56496633  0.69172887  0.79603381    -0.01550
C3370       C  0.58169543  0.67569952  0.81133784     0.03420
C3371       C  0.56288859  0.69762526  0.87846297     0.38080
C3372       C  0.56471960  0.68884464  0.76809999     0.38070
C3373       C  0.59829102  0.65611063  0.79922507     0.36490
C3374       C  0.53075954  0.73043715  0.84877145     0.36490
N3375       N  0.61148655  0.64034299  0.78968663    -0.38330
N3376       N  0.51680723  0.74476122  0.85943144    -0.38330
N3377       N  0.56442177  0.68640216  0.74580190    -0.37770
N3378       N  0.55975306  0.69901114  0.90059750    -0.37780
C3379       C  0.57082263  0.81242569  0.68454243    -0.04440
C3380       C  0.58852409  0.80669680  0.66419394    -0.01560
C3381       C  0.59790740  0.82698096  0.64805055     0.03430
C3382       C  0.58982504  0.85303982  0.65233436    -0.04440
C3383       C  0.57063979  0.85847450  0.67110064    -0.01550
C3384       C  0.56166796  0.83852292  0.68763786     0.03420
C3385       C  0.59691387  0.77993773  0.65972216     0.38080
C3386       C  0.55824872  0.88411087  0.67174555     0.38070
C3387       C  0.54170573  0.84520081  0.70658092     0.36490
C3388       C  0.61400256  0.82073704  0.62572691     0.36490
N3389       N  0.52573353  0.85202486  0.72105277    -0.38330
N3390       N  0.62608802  0.81529474  0.60750327    -0.38330
N3391       N  0.54745824  0.90408002  0.67189377    -0.37770
N3392       N  0.60357329  0.75858028  0.65610613    -0.37780
C3393       C  0.15430638  0.18207946  0.40868804    -0.04440
C3394       C  0.17500291  0.19875137  0.40182482    -0.01560
C3395       C  0.19146630  0.20896381  0.42113216     0.03430
C3396       C  0.18675652  0.20313327  0.44759457    -0.04440
C3397       C  0.16468015  0.18802559  0.45447630    -0.01550
C3398       C  0.14859834  0.17739154  0.43502017     0.03420
C3399       C  0.17868958  0.20620407  0.37489468     0.38080
C3400       C  0.15865048  0.18318836  0.48156321     0.38070
C3401       C  0.12578138  0.16214594  0.44202226     0.36490
C3402       C  0.21245459  0.22635212  0.41349349     0.36490
N3403       N  0.10733443  0.15036325  0.44765050    -0.38330
N3404       N  0.22885958  0.24021168  0.40650198    -0.38330
N3405       N  0.15378360  0.17941097  0.50317546    -0.37770
N3406       N  0.18134380  0.21277942  0.35356711    -0.37780
C3407       C  0.31553244  0.21599598  0.54870827    -0.04440
C3408       C  0.34293578  0.21385122  0.54372393    -0.01560
C3409       C  0.35802731  0.19416364  0.55561831     0.03430
C3410       C  0.34700777  0.17835245  0.57500482    -0.04440
C3411       C  0.32002143  0.18091200  0.58095195    -0.01550
C3412       C  0.30417081  0.19939101  0.56750322     0.03420
C3413       C  0.35623910  0.23262975  0.52712896     0.38080
C3414       C  0.30830398  0.16362697  0.59992905     0.38070
C3415       C  0.27628205  0.20094092  0.57269167     0.36490
C3416       C  0.38497820  0.18989266  0.54748752     0.36490
N3417       N  0.25401110  0.20220594  0.57684849    -0.38330
N3418       N  0.40618822  0.18614738  0.54037603    -0.38330
N3419       N  0.29857567  0.14963326  0.61469591    -0.37770
N3420       N  0.36693284  0.24758620  0.51402790    -0.37780
C3421       C  0.35376460  0.33776519  0.58974614    -0.04440
C3422       C  0.36268907  0.33477875  0.56410507    -0.01560
C3423       C  0.34590820  0.32448037  0.54500430     0.03430
C3424       C  0.32009752  0.31628355  0.55158707    -0.04440
C3425       C  0.31133978  0.31968424  0.57756316    -0.01550
C3426       C  0.32806800  0.33050176  0.59636535     0.03420
C3427       C  0.38904969  0.34288241  0.55728402     0.38080
C3428       C  0.28560873  0.31135856  0.58593734     0.38070
C3429       C  0.31903964  0.33354186  0.62296013     0.36490
C3430       C  0.35531470  0.32294696  0.51846447     0.36490
N3431       N  0.31182498  0.33593456  0.64411478    -0.38330
N3432       N  0.36294043  0.32172331  0.49734843    -0.38330
N3433       N  0.26543912  0.30525936  0.59412999    -0.37770
N3434       N  0.41008570  0.34931978  0.55193516    -0.37780
C3435       C  0.16159597  0.33451294  0.42170084    -0.04440
C3436       C  0.15179023  0.32438114  0.44510883    -0.01560
C3437       C  0.16681958  0.30654421  0.45971665     0.03430
C3438       C  0.19312342  0.30031994  0.45240420    -0.04440
C3439       C  0.20307212  0.31088823  0.42895367    -0.01550
C3440       C  0.18709632  0.32745372  0.41339110     0.03420
C3441       C  0.12568963  0.33174727  0.45393385     0.38080
C3442       C  0.22972948  0.30516787  0.42091211     0.38070
C3443       C  0.19703987  0.33774558  0.38907221     0.36490
C3444       C  0.15414528  0.29354871  0.48146495     0.36490
N3445       N  0.20487807  0.34598524  0.36963785    -0.38330
N3446       N  0.14391572  0.28318453  0.49867789    -0.38330
N3447       N  0.25101215  0.30065502  0.41443279    -0.37770
N3448       N  0.10502917  0.33771900  0.46118623    -0.37780
C3449       C  0.33282178  0.16620603  0.40821871    -0.04440
C3450       C  0.32577670  0.16529243  0.43470679    -0.01560
C3451       C  0.30950144  0.18482003  0.44549465     0.03430
C3452       C  0.30128878  0.20658904  0.43050810    -0.04440
C3453       C  0.30715698  0.20715040  0.40384230    -0.01550
C3454       C  0.32216579  0.18663030  0.39251753     0.03420
C3455       C  0.33498439  0.14419241  0.45120000     0.38080
C3456       C  0.29847465  0.22921324  0.38832964     0.38070
C3457       C  0.32744444  0.18728915  0.36489200     0.36490
C3458       C  0.30133068  0.18254992  0.47242529     0.36490
N3459       N  0.33165406  0.18784455  0.34283548    -0.38330
N3460       N  0.29472491  0.18026976  0.49378948    -0.38330
N3461       N  0.29153992  0.24686155  0.37595901    -0.37770
N3462       N  0.34215640  0.12776313  0.46495391    -0.37780
C3463       C  0.20503654  0.30301560  0.57681938    -0.04440
C3464       C  0.20197338  0.32858050  0.56681399    -0.01560
C3465       C  0.18556706  0.34686410  0.57941474     0.03430
C3466       C  0.17208450  0.34003583  0.60239064    -0.04440
C3467       C  0.17733645  0.31533005  0.61386359    -0.01550
C3468       C  0.19316868  0.29661252  0.60071791     0.03420
C3469       C  0.21472683  0.33569276  0.54257591     0.38080
C3470       C  0.16626180  0.30903176  0.63897573     0.38070
C3471       C  0.19669097  0.27057394  0.61131085     0.36490
C3472       C  0.18341441  0.37302821  0.56889830     0.36490
N3473       N  0.19955530  0.24974730  0.61973032    -0.38330
N3474       N  0.18267355  0.39378270  0.56001942    -0.38330
N3475       N  0.15776959  0.30411799  0.65922595    -0.37770
N3476       N  0.22482103  0.34131074  0.52324415    -0.37780
C3477       C  0.19351689  0.41673830  0.15807062    -0.04440
C3478       C  0.18422638  0.44027203  0.16931874    -0.01560
C3479       C  0.20004611  0.45423365  0.18693292     0.03430
C3480       C  0.22461686  0.44396197  0.19457067    -0.04440
C3481       C  0.23364284  0.42011542  0.18346481    -0.01550
C3482       C  0.21867688  0.40726827  0.16459713     0.03420
C3483       C  0.15820028  0.44996400  0.16311209     0.38080
C3484       C  0.25820632  0.40812939  0.19165525     0.38070
C3485       C  0.22872542  0.38329175  0.15307651     0.36490
C3486       C  0.19024712  0.47822604  0.19843615     0.36490
N3487       N  0.23684432  0.36424608  0.14393214    -0.38330
N3488       N  0.18238435  0.49735058  0.20762847    -0.38330
N3489       N  0.27755281  0.39820175  0.19821308    -0.37770
N3490       N  0.13736570  0.45764888  0.15835164    -0.37780
C3491       C  0.29786592  0.56467260  0.18974298    -0.04440
C3492       C  0.29918318  0.59233461  0.19206339    -0.01560
C3493       C  0.32131683  0.60608940  0.18317208     0.03430
C3494       C  0.34098255  0.59317062  0.16860731    -0.04440
C3495       C  0.33889618  0.56593201  0.16465445    -0.01550
C3496       C  0.31760796  0.55186697  0.17514406     0.03420
C3497       C  0.27766348  0.60704853  0.20361237     0.38080
C3498       C  0.35983427  0.55172189  0.15152815     0.38070
C3499       C  0.31709473  0.52411614  0.17087421     0.36490
C3500       C  0.32431355  0.63316360  0.19077553     0.36490
N3501       N  0.31861021  0.50219403  0.16596051    -0.38330
N3502       N  0.32685036  0.65435590  0.19806398    -0.38330
N3503       N  0.37652197  0.54035063  0.14121209    -0.37770
N3504       N  0.26058509  0.61884657  0.21277607    -0.37780
C3505       C  0.30073977  0.55289279  0.31209920    -0.04440
C3506       C  0.29925959  0.55273959  0.33943693    -0.01560
C3507       C  0.31426950  0.57069865  0.35398642     0.03430
C3508       C  0.33090663  0.58881697  0.34123047    -0.04440
C3509       C  0.33457929  0.58655942  0.31407784    -0.01550
C3510       C  0.32024846  0.56810679  0.29986279     0.03420
C3511       C  0.28100753  0.53551907  0.35248757     0.38080
C3512       C  0.35170246  0.60433107  0.30012260     0.38070
C3513       C  0.32523307  0.56515290  0.27226274     0.36490
C3514       C  0.31245465  0.57049319  0.38205169     0.36490
N3515       N  0.32953031  0.56280592  0.25034936    -0.38330
N3516       N  0.31108877  0.57026153  0.40445501    -0.38330
N3517       N  0.36524144  0.61849337  0.28888580    -0.37770
N3518       N  0.26640235  0.52184346  0.36295656    -0.37780
C3519       C  0.21098336  0.44069540  0.31620520    -0.04440
C3520       C  0.20972124  0.44037668  0.34351808    -0.01560
C3521       C  0.18937475  0.42679440  0.35633628     0.03430
C3522       C  0.16982434  0.41360600  0.34191953    -0.04440
C3523       C  0.17083061  0.41443826  0.31455148    -0.01550
C3524       C  0.19110255  0.42797885  0.30180677     0.03420
C3525       C  0.22984993  0.45321727  0.35854119     0.38080
C3526       C  0.15058390  0.40201411  0.29922296     0.38070
C3527       C  0.19080118  0.42938092  0.27364248     0.36490
C3528       C  0.18932072  0.42563136  0.38445803     0.36490
N3529       N  0.19037235  0.43030214  0.25122164    -0.38330
N3530       N  0.18929978  0.42473824  0.40688561    -0.38330
N3531       N  0.13455638  0.39207145  0.28692770    -0.37770
N3532       N  0.24585906  0.46343160  0.37062317    -0.37780
C3533       C  0.16217296  0.58042994  0.35528422    -0.04440
C3534       C  0.18981710  0.58083777  0.35540474    -0.01560
C3535       C  0.20418574  0.57085049  0.33443756     0.03430
C3536       C  0.19183601  0.55593188  0.31516570    -0.04440
C3537       C  0.16432983  0.55358377  0.31561204    -0.01550
C3538       C  0.14941050  0.56642788  0.33517682     0.03420
C3539       C  0.20412235  0.59040756  0.37756852     0.38080
C3540       C  0.15138352  0.53957545  0.29494772     0.38070
C3541       C  0.12109028  0.56572675  0.33390398     0.36490
C3542       C  0.23128659  0.57862688  0.33163057     0.36490
N3543       N  0.09848812  0.56486629  0.33256024    -0.38330
N3544       N  0.25228084  0.58673981  0.32966091    -0.38330
N3545       N  0.14106803  0.52856702  0.27831470    -0.37770
N3546       N  0.21651472  0.59727457  0.39493111    -0.37780
C3547       C  0.35022465  0.41855739  0.15922512    -0.04440
C3548       C  0.32498731  0.42860228  0.15423717    -0.01560
C3549       C  0.31217487  0.44411137  0.17287043     0.03430
C3550       C  0.32365316  0.44808116  0.19758289    -0.04440
C3551       C  0.34878478  0.43757093  0.20272124    -0.01550
C3552       C  0.36228631  0.42330506  0.18336169     0.03420
C3553       C  0.31195683  0.42276869  0.12992740     0.38080
C3554       C  0.36088323  0.44177918  0.22775105     0.38070
C3555       C  0.38808857  0.41248589  0.18863023     0.36490
C3556       C  0.28727895  0.45619948  0.16603892     0.36490
N3557       N  0.40864429  0.40373711  0.19276291    -0.38330
N3558       N  0.26807728  0.46643002  0.15953253    -0.40570
N3559       N  0.37054808  0.44516044  0.24772834    -0.37770
N3560       N  0.30132945  0.41794106  0.11074650    -0.37780
C3561       C  0.93632165  0.17317467  0.84639899    -0.04440
C3562       C  0.92807316  0.17945292  0.82070343    -0.01560
C3563       C  0.94320495  0.19610643  0.80491300     0.03430
C3564       C  0.96754657  0.20546397  0.81361379    -0.04440
C3565       C  0.97489219  0.20129583  0.83964325    -0.01550
C3566       C  0.95911580  0.18574786  0.85615607     0.03420
C3567       C  0.90471874  0.16808531  0.80946607     0.38080
C3568       C  0.99934849  0.21195310  0.84914677     0.38070
C3569       C  0.96668569  0.18296357  0.88313784     0.36490
C3570       C  0.93379720  0.20356546  0.77931668     0.36490
N3571       N  0.97283987  0.18096174  0.90464924    -0.38330
N3572       N  0.92626216  0.20967140  0.75901117    -0.38330
N3573       N  0.01883342  0.22047781  0.85671628    -0.37770
N3574       N  0.88622379  0.15904651  0.80024522    -0.37780
C3575       C  0.86211982  0.18071499  0.92870685    -0.04440
C3576       C  0.86875738  0.18728231  0.95463516    -0.01560
C3577       C  0.85156974  0.20311745  0.96946042     0.03430
C3578       C  0.82713438  0.21074278  0.95907205    -0.04440
C3579       C  0.82302170  0.20852396  0.93228491    -0.01550
C3580       C  0.84086780  0.19434072  0.91689839     0.03420
C3581       C  0.89247191  0.17726247  0.96663732     0.38080
C3582       C  0.80055071  0.22124791  0.92054198     0.38070
C3583       C  0.83710040  0.19395066  0.88899716     0.36490
C3584       C  0.85849334  0.21064245  0.99564632     0.36490
N3585       N  0.83410275  0.19375796  0.86675812    -0.38330
N3586       N  0.86414883  0.21692979  0.01641955    -0.38330
N3587       N  0.78295611  0.23173029  0.91087077    -0.37770
N3588       N  0.91137946  0.16943970  0.97640716    -0.37780
C3589       C  0.58462701  0.94340829  0.89642680    -0.04440
C3590       C  0.57852619  0.97039955  0.89347662    -0.01560
C3591       C  0.55927994  0.98219866  0.90955158     0.03430
C3592       C  0.54685729  0.96748521  0.92913526    -0.04440
C3593       C  0.54930243  0.94016519  0.92878944    -0.01550
C3594       C  0.56772881  0.92801833  0.91223160     0.03420
C3595       C  0.59232572  0.98638246  0.87471919     0.38080
C3596       C  0.53271497  0.92471608  0.94565129     0.38070
C3597       C  0.56896282  0.89967296  0.91151375     0.36490
C3598       C  0.55254834  0.00961154  0.90643550     0.36490
N3599       N  0.56982250  0.87706183  0.91089335    -0.38330
N3600       N  0.54680794  0.03135990  0.90356408    -0.38330
N3601       N  0.51900963  0.91245078  0.95871911    -0.37770
N3602       N  0.60307902  0.99922581  0.85960452    -0.37780
C3603       C  0.59545025  0.86599765  0.82105556    -0.04440
C3604       C  0.59901718  0.83869104  0.81869485    -0.01560
C3605       C  0.58002342  0.82341873  0.80614985     0.03430
C3606       C  0.55718620  0.83517177  0.79565224    -0.04440
C3607       C  0.55427180  0.86258041  0.79648785    -0.01550
C3608       C  0.57332669  0.87800572  0.80919120     0.03420
C3609       C  0.62257508  0.82621644  0.82875067     0.38080
C3610       C  0.53126203  0.87474499  0.78511883     0.38070
C3611       C  0.56945671  0.90605170  0.81104608     0.36490
C3612       C  0.58412331  0.79536462  0.80396538     0.36490
N3613       N  0.56635550  0.92843971  0.81250754    -0.38330
N3614       N  0.58756472  0.77304524  0.80224698    -0.38330
N3615       N  0.51289801  0.88446140  0.77600949    -0.37770
N3616       N  0.64138245  0.81632346  0.83672942    -0.37780
C3617       C  0.83475645  0.60629769  0.83804126    -0.04440
C3618       C  0.84699719  0.59262633  0.81706050    -0.01560
C3619       C  0.83327883  0.57315818  0.80351587     0.03430
C3620       C  0.80797856  0.56619139  0.81143750    -0.04440
C3621       C  0.79618542  0.57861907  0.83292890    -0.01550
C3622       C  0.80883200  0.59936792  0.84530692     0.03420
C3623       C  0.87380770  0.59782661  0.80921693     0.38080
C3624       C  0.77077429  0.57029823  0.84262745     0.38070
C3625       C  0.79430941  0.61369551  0.86503386     0.36490
C3626       C  0.84547968  0.55961757  0.78187208     0.36490
N3627       N  0.78246087  0.62498516  0.88060263    -0.38330
N3628       N  0.85519395  0.54881416  0.76463346    -0.38330
N3629       N  0.75080822  0.56414198  0.85131919    -0.37770
N3630       N  0.89520432  0.60169823  0.80285036    -0.37780
C3631       C  0.90558782  0.60102511  0.92095184    -0.04440
C3632       C  0.91570776  0.60565277  0.94589724    -0.01560
C3633       C  0.92950103  0.58568515  0.95931029     0.03430
C3634       C  0.93229050  0.56030797  0.94869087    -0.04440
C3635       C  0.91961320  0.55508390  0.92481717    -0.01550
C3636       C  0.90669894  0.57538455  0.91089292     0.03420
C3637       C  0.91302692  0.63144732  0.95733475     0.38080
C3638       C  0.91997912  0.52877612  0.91442458     0.38070
C3639       C  0.89418083  0.56979742  0.88633798     0.36490
C3640       C  0.94305534  0.59243691  0.98273961     0.36490
N3641       N  0.88406972  0.56525197  0.86682125    -0.38330
N3642       N  0.95413212  0.59876873  0.00109269    -0.38330
N3643       N  0.92018289  0.50776324  0.90616888    -0.37770
N3644       N  0.91078418  0.65193678  0.96656743    -0.37780
C3645       C  0.92999391  0.93440696  0.59016177    -0.04440
C3646       C  0.95106557  0.94762036  0.60149816    -0.01560
C3647       C  0.97145685  0.95764603  0.58611095     0.03430
C3648       C  0.96907451  0.95885122  0.55860272    -0.04440
C3649       C  0.94695002  0.94676121  0.54710457    -0.01550
C3650       C  0.92784572  0.93411055  0.56285450     0.03420
C3651       C  0.95043242  0.95370841  0.62889535     0.38080
C3652       C  0.94326147  0.94779457  0.51927533     0.38070
C3653       C  0.90525352  0.92198488  0.55106989     0.36490
C3654       C  0.99516392  0.96610236  0.59914201     0.36490
N3655       N  0.88705540  0.91261944  0.54161776    -0.38330
N3656       N  0.01403004  0.97271465  0.60959879    -0.38330
N3657       N  0.94020464  0.94857243  0.49705434    -0.37770
N3658       N  0.94978079  0.96023249  0.65032109    -0.37780
C3659       C  0.84400694  0.85676977  0.58480684    -0.04440
C3660       C  0.81697435  0.85222942  0.58848117    -0.01560
C3661       C  0.80282559  0.83682386  0.57066760     0.03430
C3662       C  0.81538909  0.82584766  0.54865376    -0.04440
C3663       C  0.84234306  0.83140023  0.54454721    -0.01550
C3664       C  0.85660198  0.84626403  0.56274145     0.03420
C3665       C  0.80396225  0.86194830  0.61165430     0.38080
C3666       C  0.85557155  0.82220936  0.52132824     0.38070
C3667       C  0.88437024  0.85070587  0.55868109     0.36490
C3668       C  0.77563871  0.83131759  0.57618770     0.36490
N3669       N  0.90654994  0.85408870  0.55549301    -0.38330
N3670       N  0.75398196  0.82738739  0.58133460    -0.38330
N3671       N  0.86616149  0.81492679  0.50281932    -0.37770
N3672       N  0.79361491  0.86957565  0.63016219    -0.37780
C3673       C  0.82707799  0.91107833  0.16082326    -0.04440
C3674       C  0.83797294  0.93294918  0.17406348    -0.01560
C3675       C  0.82211658  0.94861557  0.19014795     0.03430
C3676       C  0.79569344  0.94230572  0.19407131    -0.04440
C3677       C  0.78582383  0.91864904  0.18450600    -0.01550
C3678       C  0.80124829  0.90312228  0.16766918     0.03420
C3679       C  0.86532799  0.94012872  0.17117672     0.38080
C3680       C  0.75931312  0.91097245  0.19116518     0.38070
C3681       C  0.78978152  0.87966895  0.15693892     0.36490
C3682       C  0.83263663  0.97213605  0.20184194     0.36490
N3683       N  0.78043485  0.86098259  0.14851035    -0.38330
N3684       N  0.84101047  0.99085827  0.21114676    -0.38330
N3685       N  0.73826217  0.90476186  0.19671594    -0.37770
N3686       N  0.88710129  0.94599434  0.16905486    -0.37780
C3687       C  0.90592090  0.83432402  0.15867171    -0.04440
C3688       C  0.90605163  0.84354008  0.18441818    -0.01560
C3689       C  0.92054093  0.83012884  0.20365473     0.03430
C3690       C  0.93488392  0.80723782  0.19728138    -0.04440
C3691       C  0.93284976  0.79694351  0.17191472    -0.01550
C3692       C  0.91889810  0.81073605  0.15265948     0.03420
C3693       C  0.89118925  0.86679226  0.19120911     0.38080
C3694       C  0.94724432  0.77357725  0.16452643     0.38070
C3695       C  0.92015971  0.80165620  0.12615224     0.36490
C3696       C  0.92049775  0.83986790  0.23004631     0.36490
N3697       N  0.92235942  0.79379179  0.10529501    -0.38330
N3698       N  0.92044306  0.84766204  0.25108586    -0.38330
N3699       N  0.95874913  0.75517728  0.15804497    -0.37770
N3700       N  0.87928238  0.88521143  0.19695924    -0.37780
C3701       C  0.21316856  0.94470178  0.80784182    -0.04440
C3702       C  0.21789493  0.92012620  0.81962576    -0.01560
C3703       C  0.19680683  0.90488948  0.82870605     0.03430
C3704       C  0.17093262  0.91462382  0.82723390    -0.04440
C3705       C  0.16601600  0.93860578  0.81470837    -0.01550
C3706       C  0.18697564  0.95370179  0.80511660     0.03420
C3707       C  0.24452070  0.91022429  0.82184537     0.38080
C3708       C  0.13923601  0.94615748  0.80884294     0.38070
C3709       C  0.18092200  0.97674393  0.78974805     0.36490
C3710       C  0.20159034  0.87842172  0.83773677     0.36490
N3711       N  0.17469718  0.99443696  0.77709088    -0.38330
N3712       N  0.20563625  0.85706790  0.84413901    -0.38330
N3713       N  0.11809594  0.95195676  0.80303736    -0.37770
N3714       N  0.26576259  0.90235769  0.82363627    -0.37780
C3715       C  0.21445982  0.80694742  0.92522926    -0.04440
C3716       C  0.21854828  0.83341937  0.91830658    -0.01560
C3717       C  0.19846706  0.84777902  0.90596232     0.03430
C3718       C  0.17587351  0.83481927  0.89695810    -0.04440
C3719       C  0.17430989  0.80740829  0.89967453    -0.01550
C3720       C  0.19152788  0.79437474  0.91662523     0.03420
C3721       C  0.24272497  0.84636723  0.92539939     0.38080
C3722       C  0.15459721  0.79254433  0.88601588     0.38070
C3723       C  0.18211153  0.77101676  0.92938481     0.36490
C3724       C  0.20125145  0.87581145  0.90251129     0.36490
N3725       N  0.17283999  0.75341611  0.94004787    -0.38330
N3726       N  0.20349408  0.89816876  0.89985707    -0.38330
N3727       N  0.13941178  0.78047664  0.87458621    -0.37770
N3728       N  0.26199091  0.85668715  0.93104834    -0.37780
C3729       C  0.94540720  0.95591433  0.74381923    -0.04440
C3730       C  0.91778214  0.95706037  0.74087464    -0.01560
C3731       C  0.90585486  0.94813558  0.71786749     0.03430
C3732       C  0.92027854  0.93299388  0.69971403    -0.04440
C3733       C  0.94777472  0.93060765  0.70331464    -0.01550
C3734       C  0.96032494  0.94394661  0.72379489     0.03420
C3735       C  0.90107867  0.96611742  0.76188612     0.38080
C3736       C  0.96366897  0.91546296  0.68536382     0.38070
C3737       C  0.98866550  0.94623678  0.72340553     0.36490
C3738       C  0.87897433  0.95580663  0.71282448     0.36490
N3739       N  0.01124984  0.94816215  0.72298439    -0.38330
N3740       N  0.85797724  0.96338279  0.70872090    -0.38330
N3741       N  0.97644659  0.90346595  0.67108199    -0.37770
N3742       N  0.88765674  0.97317738  0.77861456    -0.37780
C3743       C  0.01231525  0.94553911  0.81559923    -0.04440
C3744       C  0.01059595  0.91839361  0.82065589    -0.01560
C3745       C  0.03223499  0.90465868  0.83109648     0.03430
C3746       C  0.05516139  0.91821651  0.83840518    -0.04440
C3747       C  0.05597119  0.94566697  0.83546778    -0.01550
C3748       C  0.03537820  0.95899816  0.82277577     0.03420
C3749       C  0.98623273  0.90466039  0.81614310     0.38080
C3750       C  0.07785341  0.96041904  0.84559403     0.38070
C3751       C  0.03848894  0.98647223  0.81633822     0.36490
C3752       C  0.03021525  0.87670483  0.83567869     0.36490
N3753       N  0.04102661  0.00834954  0.81115748    -0.38330
N3754       N  0.02853558  0.85444669  0.83940553    -0.38330
N3755       N  0.09507034  0.97231873  0.85397503    -0.37770
N3756       N  0.96679471  0.89371653  0.81260307    -0.37780
C3757       C  0.94831592  0.01961835  0.81854946    -0.04440
C3758       C  0.93432737  0.01434491  0.84163762    -0.01560
C3759       C  0.92384437  0.03500638  0.85647926     0.03430
C3760       C  0.92761214  0.06117878  0.84871298    -0.04440
C3761       C  0.94137367  0.06651454  0.82549494    -0.01550
C3762       C  0.95163419  0.04577811  0.81040326     0.03420
C3763       C  0.93027083  0.98749160  0.84993634     0.38080
C3764       C  0.94512529  0.09337106  0.81722732     0.38070
C3765       C  0.96602466  0.05134940  0.78678009     0.36490
C3766       C  0.90807490  0.02900233  0.87903338     0.36490
N3767       N  0.97746832  0.05575283  0.76788413    -0.38330
N3768       N  0.89519736  0.02320838  0.89655783    -0.38330
N3769       N  0.94817648  0.11477625  0.81058867    -0.37770
N3770       N  0.92715447  0.96609767  0.85658867    -0.37780
C3771       C  0.94285058  0.75710287  0.93737531    -0.04440
C3772       C  0.91745419  0.76165321  0.92737839    -0.01560
C3773       C  0.90285619  0.74076274  0.91741932     0.03430
C3774       C  0.91388967  0.71539705  0.91674936    -0.04440
C3775       C  0.93937327  0.71086494  0.92637658    -0.01550
C3776       C  0.95363499  0.73158849  0.93714850     0.03420
C3777       C  0.90651999  0.78793672  0.92688015     0.38080
C3778       C  0.95079674  0.68479569  0.92552376     0.38070
C3779       C  0.97898995  0.72640370  0.94883299     0.36490
C3780       C  0.87686321  0.74560007  0.90694604     0.36490
N3781       N  0.99911587  0.72205874  0.95826230    -0.38330
N3782       N  0.85613996  0.74949766  0.89864484    -0.38330
N3783       N  0.95998582  0.66405576  0.92476394    -0.37770
N3784       N  0.89781062  0.80889064  0.92654988    -0.37780
C3785       C  0.94779569  0.82171991  0.00880864    -0.04440
C3786       C  0.93351806  0.80556541  0.02616327    -0.01560
C3787       C  0.91470991  0.81645672  0.04306133     0.03430
C3788       C  0.91347567  0.84381097  0.04677256    -0.04440
C3789       C  0.92935964  0.86010551  0.03099674    -0.01550
C3790       C  0.94587930  0.84921579  0.01177266     0.03420
C3791       C  0.93848566  0.77755537  0.02712289     0.38080
C3792       C  0.92740699  0.88839224  0.03303975     0.38070
C3793       C  0.96037929  0.86679467  0.99503227     0.36490
C3794       C  0.89590318  0.79926082  0.05540096     0.36490
N3795       N  0.97203165  0.88140022  0.98237101    -0.38330
N3796       N  0.88068501  0.78542888  0.06476814    -0.38330
N3797       N  0.92590866  0.91092756  0.03457330    -0.37770
N3798       N  0.94247261  0.75525983  0.02795349    -0.37780
C3799       C  0.01795805  0.81898745  0.93896362    -0.04440
C3800       C  0.01522115  0.84370248  0.92698033    -0.01560
C3801       C  0.03655551  0.85500376  0.91379737     0.03430
C3802       C  0.06029590  0.84091394  0.91084377    -0.04440
C3803       C  0.06294895  0.81604204  0.92257004    -0.01550
C3804       C  0.04186750  0.80514967  0.93667144     0.03420
C3805       C  0.98991263  0.85682200  0.92674353     0.38080
C3806       C  0.08770562  0.80215174  0.92149681     0.38070
C3807       C  0.04480410  0.77970388  0.94886821     0.36490
C3808       C  0.03394450  0.88129593  0.90341547     0.36490
N3809       N  0.04732043  0.75939481  0.95854374    -0.38330
N3810       N  0.03162060  0.90244401  0.89566768    -0.38330
N3811       N  0.10726687  0.79062185  0.92154864    -0.37770
N3812       N  0.96965158  0.86710649  0.92606293    -0.37780
C3813       C  0.82211568  0.02657580  0.95085760    -0.04440
C3814       C  0.81019067  0.05042319  0.94296891    -0.01560
C3815       C  0.82557432  0.07103425  0.93292632     0.03430
C3816       C  0.85325081  0.06891698  0.93231003    -0.04440
C3817       C  0.86523207  0.04707134  0.94436937    -0.01550
C3818       C  0.84997932  0.02527005  0.95172050     0.03420
C3819       C  0.78209739  0.05414555  0.94564422     0.38080
C3820       C  0.89330081  0.04662495  0.94892880     0.38070
C3821       C  0.86339717  0.00108520  0.95851536     0.36490
C3822       C  0.81285897  0.09496297  0.92418488     0.36490
N3823       N  0.87423326  0.98186606  0.96389807    -0.38330
N3824       N  0.80276307  0.11408290  0.91727558    -0.38330
N3825       N  0.91563564  0.04627273  0.95281407    -0.37770
N3826       N  0.75969807  0.05716039  0.94779244    -0.37780
C3827       C  0.74634425  0.96479826  0.93337818    -0.04440
C3828       C  0.72138745  0.96179725  0.94512379    -0.01560
C3829       C  0.69998443  0.95199848  0.93076553     0.03430
C3830       C  0.70293718  0.94573809  0.90425189    -0.04440
C3831       C  0.72738596  0.95028160  0.89205973    -0.01550
C3832       C  0.74904760  0.95928425  0.90659709     0.03420
C3833       C  0.71754646  0.96917818  0.97200873     0.38080
C3834       C  0.73071046  0.94448378  0.86471977     0.38070
C3835       C  0.77444767  0.96159819  0.89414002     0.36490
C3836       C  0.67466710  0.94883498  0.94320345     0.36490
N3837       N  0.79470374  0.96344825  0.88418637    -0.38330
N3838       N  0.65444474  0.94633254  0.95307551    -0.38330
N3839       N  0.73337947  0.93987539  0.84291469    -0.37770
N3840       N  0.71452400  0.97508009  0.99345588    -0.37780
C3841       C  0.80777129  0.94880577  0.00859660    -0.04440
C3842       C  0.80950557  0.95876364  0.03411561    -0.01560
C3843       C  0.82164064  0.94386062  0.05391291     0.03430
C3844       C  0.83168932  0.91867177  0.04853267    -0.04440
C3845       C  0.82911526  0.90826250  0.02334983    -0.01550
C3846       C  0.81744372  0.92332191  0.00341089     0.03420
C3847       C  0.79858788  0.98430607  0.04009766     0.38080
C3848       C  0.83958470  0.88243967  0.01764753     0.38070
C3849       C  0.81656509  0.91296932  0.97726588     0.36490
C3850       C  0.82345952  0.95427891  0.07998548     0.36490
N3851       N  0.81584467  0.90471538  0.95641564    -0.38330
N3852       N  0.82494324  0.96250022  0.10080692    -0.38330
N3853       N  0.84796250  0.86186089  0.01313207    -0.37770
N3854       N  0.78990200  0.00469725  0.04486238    -0.37780
C3855       C  0.81761406  0.76384969  0.81081566    -0.04440
C3856       C  0.80215429  0.74265515  0.81978243    -0.01560
C3857       C  0.81373523  0.72135894  0.83332598     0.03430
C3858       C  0.84121767  0.72007057  0.83716176    -0.04440
C3859       C  0.85681399  0.74071435  0.82741866    -0.01550
C3860       C  0.84511619  0.76263783  0.81495423     0.03420
C3861       C  0.77421093  0.74221773  0.81455700     0.38080
C3862       C  0.88500728  0.74002521  0.83106014     0.38070
C3863       C  0.86156501  0.78442114  0.80741730     0.36490
C3864       C  0.79714134  0.70044327  0.84283552     0.36490
N3865       N  0.87478859  0.80169338  0.80132484    -0.38330
N3866       N  0.78379314  0.68392016  0.85052731    -0.38330
N3867       N  0.90750553  0.73941453  0.83383586    -0.37770
N3868       N  0.75190874  0.74185701  0.81053168    -0.37780
C3869       C  0.70707753  0.86663994  0.83038034    -0.04440
C3870       C  0.73083498  0.86288703  0.84397110    -0.01560
C3871       C  0.75141367  0.84792128  0.83295967     0.03430
C3872       C  0.74808171  0.83555210  0.80866686    -0.04440
C3873       C  0.72391294  0.83874400  0.79546681    -0.01550
C3874       C  0.70373405  0.85456338  0.80606163     0.03420
C3875       C  0.73432494  0.87482782  0.86920381     0.38080
C3876       C  0.71949351  0.82522165  0.77120893     0.38070
C3877       C  0.67915433  0.85779489  0.79227290     0.36490
C3878       C  0.77637191  0.84612972  0.84629772     0.36490
N3879       N  0.65953788  0.86042515  0.78131113    -0.38330
N3880       N  0.79628639  0.84473155  0.85693037    -0.38330
N3881       N  0.71594722  0.81442333  0.75186376    -0.37770
N3882       N  0.73714830  0.88419317  0.88939172    -0.37780
C3883       C  0.81560038  0.83211928  0.73832744    -0.04440
C3884       C  0.81854463  0.85970047  0.73803282    -0.01560
C3885       C  0.82815603  0.87263214  0.71579543     0.03430
C3886       C  0.83919755  0.85829377  0.69505195    -0.04440
C3887       C  0.83658422  0.83070578  0.69526074    -0.01550
C3888       C  0.82395861  0.81783694  0.71624699     0.03420
C3889       C  0.81284913  0.87508314  0.76103709     0.38080
C3890       C  0.84556721  0.81559118  0.67317070     0.38070
C3891       C  0.81891926  0.79002198  0.71460217     0.36490
C3892       C  0.82532494  0.90074880  0.71416130     0.36490
N3893       N  0.81486478  0.76783276  0.71320933    -0.38330
N3894       N  0.82153095  0.92302278  0.71295806    -0.38330
N3895       N  0.85268354  0.80355782  0.65551170    -0.37770
N3896       N  0.80835797  0.88737582  0.77933686    -0.37780
C3897       C  0.45699638  0.18668656  0.19736863    -0.04440
C3898       C  0.43940066  0.19628266  0.17819730    -0.01560
C3899       C  0.42233855  0.17931562  0.16520074     0.03430
C3900       C  0.41945829  0.15297580  0.17349122    -0.04440
C3901       C  0.43627143  0.14350598  0.19345420    -0.01550
C3902       C  0.45538246  0.16003113  0.20470784     0.03420
C3903       C  0.43822420  0.22394888  0.17155700     0.38080
C3904       C  0.43534761  0.11627960  0.20142418     0.38070
C3905       C  0.47422668  0.14900843  0.22276817     0.36490
C3906       C  0.40875162  0.18939894  0.14247050     0.36490
N3907       N  0.48935249  0.13986364  0.23687696    -0.38330
N3908       N  0.39852999  0.19758655  0.12410603    -0.38330
N3909       N  0.43479247  0.09458175  0.20786333    -0.37770
N3910       N  0.43707210  0.24582534  0.16583417    -0.37780
C3911       C  0.54630350  0.33755670  0.29405706    -0.04440
C3912       C  0.54833818  0.34059570  0.32132078    -0.01560
C3913       C  0.57017689  0.35306676  0.33220803     0.03430
C3914       C  0.58957898  0.36415973  0.31603639    -0.04440
C3915       C  0.58442517  0.36617172  0.28905882    -0.01550
C3916       C  0.56285556  0.35279533  0.27806985     0.03420
C3917       C  0.52776781  0.33110169  0.33839983     0.38080
C3918       C  0.60101602  0.38197165  0.27252451     0.38070
C3919       C  0.55745196  0.35533380  0.25059337     0.36490
C3920       C  0.57206901  0.35512444  0.36024347     0.36490
N3921       N  0.55291529  0.35778178  0.22873380    -0.38330
N3922       N  0.57340146  0.35673505  0.38258008    -0.38330
N3923       N  0.61373671  0.39502662  0.25921588    -0.37770
N3924       N  0.51141126  0.32357614  0.35204115    -0.37780
C3925       C  0.55216997  0.20375805  0.30290583    -0.04440
C3926       C  0.55505806  0.20675488  0.33011855    -0.01560
C3927       C  0.57470000  0.19302940  0.34356417     0.03430
C3928       C  0.58921614  0.17327020  0.33107352    -0.04440
C3929       C  0.58568820  0.16908017  0.30422132    -0.01550
C3930       C  0.56765082  0.18478023  0.28998618     0.03420
C3931       C  0.53731023  0.22345215  0.34481125     0.38080
C3932       C  0.60186074  0.14985766  0.29104653     0.38070
C3933       C  0.56586010  0.18215741  0.26209186     0.36490
C3934       C  0.58084214  0.20041345  0.37000936     0.36490
N3935       N  0.56452755  0.18019323  0.23978570    -0.38330
N3936       N  0.58603063  0.20715535  0.39075341    -0.38330
N3937       N  0.61497148  0.13464783  0.28055931    -0.37770
N3938       N  0.52314869  0.23655173  0.35667318    -0.37780
C3939       C  0.57315318  0.29990608  0.18063410    -0.04440
C3940       C  0.59087769  0.31713351  0.19255285    -0.01560
C3941       C  0.60248405  0.33742267  0.17805960     0.03430
C3942       C  0.59807358  0.33941315  0.15098066    -0.04440
C3943       C  0.58277989  0.32021264  0.13855658    -0.01550
C3944       C  0.56990985  0.30094355  0.15330165     0.03420
C3945       C  0.59757377  0.31369679  0.21969498     0.38080
C3946       C  0.58007325  0.32013099  0.11050120     0.38070
C3947       C  0.55177660  0.28362461  0.14023324     0.36490
C3948       C  0.61783223  0.35692793  0.19148492     0.36490
N3949       N  0.53726320  0.26999930  0.12971429    -0.38330
N3950       N  0.62998782  0.37254931  0.20218872    -0.38330
N3951       N  0.57786347  0.31998841  0.08816861    -0.37770
N3952       N  0.60311032  0.31084456  0.24127662    -0.37780
C3953       C  0.46808164  0.31008014  0.18584943    -0.04440
C3954       C  0.44074078  0.30766959  0.18905767    -0.01560
C3955       C  0.42327287  0.32242096  0.17327208     0.03430
C3956       C  0.43307919  0.33932990  0.15361948    -0.04440
C3957       C  0.46068593  0.34223539  0.15131828    -0.01550
C3958       C  0.47781051  0.32853086  0.16803272     0.03420
C3959       C  0.43063178  0.28992080  0.20860390     0.38080
C3960       C  0.47202629  0.35826085  0.13092831     0.38070
C3961       C  0.50552446  0.33452102  0.16772093     0.36490
C3962       C  0.39528817  0.32029790  0.17764953     0.36490
N3963       N  0.52734789  0.34044194  0.16768562    -0.38330
N3964       N  0.37296476  0.31859025  0.18123841    -0.38330
N3965       N  0.48120756  0.37088191  0.11464535    -0.37770
N3966       N  0.42262167  0.27574856  0.22422223    -0.37780
C3967       C  0.45191151  0.20289087  0.31297400    -0.04440
C3968       C  0.46038375  0.17654850  0.31379373    -0.01560
C3969       C  0.44668778  0.15820583  0.32894354     0.03430
C3970       C  0.42401174  0.16593344  0.34260648    -0.04440
C3971       C  0.41701674  0.19262722  0.34374382    -0.01550
C3972       C  0.43084351  0.21110334  0.32876317     0.03420
C3973       C  0.48396885  0.16846057  0.30017030     0.38080
C3974       C  0.39716033  0.20134784  0.36192597     0.38070
C3975       C  0.42365534  0.23856499  0.32982731     0.36490
C3976       C  0.45711190  0.13192456  0.33206414     0.36490
N3977       N  0.41800480  0.26049683  0.33074449    -0.38330
N3978       N  0.46613646  0.11130920  0.33500160    -0.38330
N3979       N  0.38201634  0.20871026  0.37698944    -0.37770
N3980       N  0.50287135  0.16160107  0.28971855    -0.37780
C3981       C  0.54971017  0.44330843  0.43062060    -0.04440
C3982       C  0.57504200  0.43923415  0.44082566    -0.01560
C3983       C  0.59427138  0.42659924  0.42591666     0.03430
C3984       C  0.59089453  0.42431565  0.39890073    -0.04440
C3985       C  0.56611267  0.42973567  0.38796950    -0.01550
C3986       C  0.54520354  0.43792992  0.40406467     0.03420
C3987       C  0.58318950  0.45164982  0.46461344     0.38080
C3988       C  0.56181800  0.42583717  0.36045834     0.38070
C3989       C  0.51928375  0.44171677  0.39309311     0.36490
C3990       C  0.61730720  0.41587078  0.43866829     0.36490
N3991       N  0.49860536  0.44474807  0.38436077    -0.38330
N3992       N  0.63532072  0.40681458  0.44904388    -0.38330
N3993       N  0.55836259  0.42274263  0.33851422    -0.37770
N3994       N  0.59119496  0.46153241  0.48308149    -0.37780
C3995       C  0.45653796  0.55470641  0.56708362    -0.04440
C3996       C  0.45886662  0.58208730  0.56958580    -0.01560
C3997       C  0.44039847  0.59645052  0.58436765     0.03430
C3998       C  0.41940896  0.58356524  0.59706985    -0.04440
C3999       C  0.41789160  0.55597878  0.59558741    -0.01550
C4000       C  0.43615709  0.54172503  0.58057880     0.03420
C4001       C  0.48096178  0.59543839  0.55787803     0.38080
C4002       C  0.39723149  0.54195597  0.60904873     0.38070
C4003       C  0.43344642  0.51355503  0.57888041     0.36490
C4004       C  0.44392237  0.62440116  0.58748891     0.36490
N4005       N  0.43106590  0.49110068  0.57805255    -0.38330
N4006       N  0.44684101  0.64665995  0.59009498    -0.38330
N4007       N  0.38085177  0.53064806  0.61975128    -0.37770
N4008       N  0.49859294  0.60608500  0.54856777    -0.37780
C4009       C  0.39679599  0.58962243  0.42708325    -0.04440
C4010       C  0.40694511  0.59573290  0.45160890    -0.01560
C4011       C  0.42221460  0.57709169  0.46487611     0.03430
C4012       C  0.42694527  0.55230061  0.45346777    -0.04440
C4013       C  0.41278537  0.54504673  0.43108531    -0.01550
C4014       C  0.39837844  0.56398462  0.41744579     0.03420
C4015       C  0.40345473  0.62183416  0.46215851     0.38080
C4016       C  0.41357048  0.51832655  0.42164552     0.38070
C4017       C  0.38614333  0.55738322  0.39294994     0.36490
C4018       C  0.43429180  0.58442463  0.48916860     0.36490
N4019       N  0.37661778  0.55199514  0.37335932    -0.38330
N4020       N  0.44367295  0.59068475  0.50854879    -0.38330
N4021       N  0.41414580  0.49704612  0.41409444    -0.37770
N4022       N  0.40067045  0.64262984  0.47054871    -0.37780
C4023       C  0.47189780  0.43314285  0.54761486    -0.04440
C4024       C  0.48261379  0.41349404  0.56356063    -0.01560
C4025       C  0.46716455  0.40130475  0.58264720     0.03430
C4026       C  0.43993559  0.40709460  0.58450201    -0.04440
C4027       C  0.42849831  0.42374056  0.56545178    -0.01550
C4028       C  0.44455977  0.43702647  0.54735069     0.03420
C4029       C  0.50943399  0.40495897  0.55974488     0.38080
C4030       C  0.40030851  0.42726131  0.56425365     0.38070
C4031       C  0.43314275  0.45530908  0.52893615     0.36490
C4032       C  0.48010802  0.38397626  0.60106257     0.36490
N4033       N  0.42408412  0.46990039  0.51421452    -0.38330
N4034       N  0.49065135  0.37027617  0.61566450    -0.38330
N4035       N  0.37780039  0.42999207  0.56319807    -0.37770
N4036       N  0.53030272  0.39656497  0.55677524    -0.37780
C4037       C  0.54060334  0.56510926  0.45365559    -0.04440
C4038       C  0.56650305  0.55613597  0.45049129    -0.01560
C4039       C  0.58357233  0.56836632  0.43267299     0.03430
C4040       C  0.57502705  0.59063641  0.41823739    -0.04440
C4041       C  0.55010739  0.60188255  0.42486153    -0.01550
C4042       C  0.53299508  0.58882278  0.44214805     0.03420
C4043       C  0.57531817  0.53379599  0.46552225     0.38080
C4044       C  0.54129868  0.62656341  0.41387073     0.38070
C4045       C  0.50697309  0.59908978  0.44747548     0.36490
C4046       C  0.60961134  0.55730033  0.42922848     0.36490
N4047       N  0.48621883  0.60705326  0.45210713    -0.38330
N4048       N  0.63028875  0.54822500  0.42659145    -0.38330
N4049       N  0.53407695  0.64630926  0.40536754    -0.37770
N4050       N  0.58241462  0.51634122  0.47800980    -0.37780
C4051       C  0.56915407  0.44270367  0.55123026    -0.04440
C4052       C  0.58136193  0.42112780  0.53870081    -0.01560
C4053       C  0.59674564  0.40344055  0.55311876     0.03430
C4054       C  0.59578129  0.40398881  0.58041160    -0.04440
C4055       C  0.57888797  0.42191054  0.59298568    -0.01550
C4056       C  0.56717791  0.44223606  0.57879037     0.03420
C4057       C  0.57397581  0.41333224  0.51278306     0.38080
C4058       C  0.57229477  0.41900580  0.62032639     0.38070
C4059       C  0.55073124  0.46076804  0.59286355     0.36490
C4060       C  0.61115775  0.38285432  0.53978909     0.36490
N4061       N  0.53764766  0.47529557  0.60429918    -0.38330
N4062       N  0.62259955  0.36646755  0.52914600    -0.38330
N4063       N  0.56673344  0.41667786  0.64198405    -0.37770
N4064       N  0.56740017  0.40517788  0.49295268    -0.37780
loop_ 
_geom_bond_atom_site_label_1 
_geom_bond_atom_site_label_2 
_geom_bond_distance 
_geom_bond_site_symmetry_2 
_ccdc_geom_bond_type 
O1           Ni7   1.924       .  S
O1           C22   1.271       .  A
O2          Ni25   1.914       .  S
O2           C11   1.277       .  A
O3           Ni7   1.874       .  S
O3          Ni25   1.903       .  S
O3          Ni19   1.888       .  S
O3           H26   0.966       .  S
C4           O21   1.269       .  A
C4           O13   1.275       .  A
C4         C4012   1.478       .  S
O5          Ni24   1.911       .  S
O5           C11   1.268       .  A
O6          Ni24   1.883       .  S
O6            C8   1.264       .  A
Ni7          O10   1.902       .  S
Ni7          O12   1.918       .  S
C8           O18   1.279       .  A
C8         C4037   1.480       .  S
O9          Ni25   1.925       .  S
O9           C15   1.274       .  A
O10          C15   1.269       .  A
C11        C3981   1.481       .  S
O12          C14   1.273       .  A
O13         Ni24   1.912       .  S
C14          O20   1.276       .  A
C14        C4023   1.480       .  S
C15        C4051   1.489       .  S
H16          O17   0.966       .  S
O17         Ni25   1.910       .  S
O17         Ni19   1.905       .  S
O17         Ni24   1.886       .  S
O18         Ni19   1.956       .  S
Ni19         O23   1.917       .  S
Ni19         O21   1.895       .  S
O20         Ni25   1.937       .  S
C22          O23   1.272       .  A
C22        C3995   1.494       .  S
O27         Ni33   1.911       .  S
O27          C48   1.270       .  A
O28         Ni51   1.924       .  S
O28          C37   1.273       .  A
O29         Ni33   1.891       .  S
O29         Ni51   1.903       .  S
O29         Ni45   1.905       .  S
O29          H52   0.966       .  S
C30          O47   1.270       .  A
C30          O39   1.273       .  A
C30        C3967   1.474       .  S
O31         Ni50   1.910       .  S
O31          C37   1.269       .  A
O32         Ni50   1.888       .  S
O32          C34   1.263       .  A
Ni33         O36   1.906       .  S
Ni33         O38   1.924       .  S
C34          O44   1.281       .  A
C34        C3925   1.495       .  S
O35         Ni51   1.930       .  S
O35          C41   1.279       .  A
O36          C41   1.271       .  A
C37        C3911   1.503       .  S
O38          C40   1.273       .  A
O39         Ni50   1.933       .  S
C40          O46   1.274       .  A
C40        C3953   1.489       .  S
C41        C3939   1.488       .  S
H42          O43   0.967       .  S
O43         Ni51   1.922       .  S
O43         Ni45   1.916       .  S
O43         Ni50   1.890       .  S
O44         Ni45   1.969       .  S
Ni45         O49   1.921       .  S
Ni45         O47   1.902       .  S
O46         Ni51   1.936       .  S
C48          O49   1.273       .  A
C48        C3897   1.505       .  S
C53        C3855   1.516       .  S
C53          C54   1.415       .  A
C53          C58   1.414       .  A
C54          C55   1.412       .  A
C54          H59   1.082       .  S
C55        C3883   1.511       .  S
C55          C56   1.406       .  A
C56          C57   1.401       .  A
C56          H60   1.084       .  S
C57        C3872   1.503       .  S
C57          C58   1.408       .  A
C58          H61   1.083       .  S
C62        C3827   1.507       .  S
C62          C63   1.408       .  A
C62          C67   1.411       .  A
C63          C64   1.406       .  A
C63          H68   1.084       .  S
C64        C3841   1.497   1_556  S
C64          C65   1.402       .  A
C65          C66   1.406   1_565  A
C65          H69   1.083       .  S
C66        C3813   1.511       .  S
C66          C67   1.414   1_545  A
C67          H70   1.083   1_565  S
C71        C3799   1.486   1_655  S
C71          C72   1.410       .  A
C71          C76   1.400       .  A
C72          C73   1.412       .  A
C72          H77   1.082       .  S
C73        C3785   1.505   1_556  S
C73          C74   1.403       .  A
C74          C75   1.394       .  A
C74          H78   1.083       .  S
C75        C3771   1.480       .  S
C75          C76   1.397       .  A
C76          H79   1.084       .  S
C80        C3729   1.513       .  S
C80          C81   1.414       .  A
C80          C85   1.411       .  A
C81          C82   1.405       .  A
C81          H86   1.082   1_565  S
C82        C3757   1.489   1_565  S
C82          C83   1.397       .  A
C83          C84   1.399       .  A
C83          H87   1.084       .  S
C84        C3743   1.496   1_655  S
C84          C85   1.406       .  A
C85          H88   1.081       .  S
O89         Ni97   1.913       .  S
O89          C99   1.280       .  A
O90         Ni97   1.905       .  S
O90         C100   1.278       .  A
O91         Ni97   1.934       .  S
O91         C101   1.285       .  A
O92         Ni97   1.930       .  S
O92         C102   1.283       .  A
O93         Ni98   1.908       .  S
O93         C102   1.278       .  A
O94         Ni98   1.912       .  S
O94         C101   1.278       .  A
O95         Ni98   1.917       .  S
O95         C100   1.283       .  A
O96         Ni98   1.919       .  S
O96          C99   1.282       .  A
Ni97        Ni98   2.390       .  S
C99        C3746   1.488       .  S
C100       C3718   1.483       .  S
C101       C3802   1.485       .  S
C102       C3704   1.478       .  S
O103       Ni111   1.918       .  S
O103        C113   1.280       .  A
O104       Ni111   1.916       .  S
O104        C114   1.280       .  A
O105       Ni111   1.930       .  S
O105        C115   1.284       .  A
O106       Ni111   1.926       .  S
O106        C116   1.284       .  A
O107       Ni112   1.905       .  S
O107        C116   1.279       .  A
O108       Ni112   1.897       .  S
O108        C115   1.277       .  A
O109       Ni112   1.920       .  S
O109        C114   1.281       .  A
O110       Ni112   1.922       .  S
O110        C113   1.282       .  A
Ni111      Ni112   2.383       .  S
C113       C3844   1.485       .  S
C114       C3687   1.479       .  S
C115       C3673   1.507       .  S
C116       C3788   1.497       .  S
O117       Ni125   1.924       .  S
O117        C127   1.282       .  A
O118       Ni125   1.925       .  S
O118        C128   1.282       .  A
O119       Ni125   1.927       .  S
O119        C129   1.283       .  A
O120       Ni125   1.923       .  S
O120        C130   1.282       .  A
O121       Ni126   1.922       .  S
O121        C130   1.282       .  A
O122       Ni126   1.928       .  S
O122        C129   1.283       .  A
O123       Ni126   1.935       .  S
O123        C128   1.283       .  A
O124       Ni126   1.933       .  S
O124        C127   1.285       .  A
Ni125      Ni126   2.383       .  S
C127       C3886   1.504       .  S
C128       C3645   1.492       .  S
C129       C3732   1.509       .  S
C130       C3659   1.493       .  S
O131       Ni139   1.913       .  S
O131        C141   1.281       .  A
O132       Ni139   1.909       .  S
O132        C142   1.282       .  A
O133       Ni139   1.923       .  S
O133        C143   1.280       .  A
O134       Ni139   1.923       .  S
O134        C144   1.282       .  A
O135       Ni140   1.936       .  S
O135        C144   1.286       .  A
O136       Ni140   1.937       .  S
O136        C143   1.285       .  A
O137       Ni140   1.895       .  S
O137        C142   1.275       .  A
O138       Ni140   1.901       .  S
O138        C141   1.277       .  A
Ni139      Ni140   2.383       .  S
C141       C3774   1.469       .  S
C142       C3617   1.498       .  S
C143       C3631   1.495       .  S
C144       C3858   1.507       .  S
O145       Ni153   1.913       .  S
O145        C155   1.279       .  A
O146       Ni153   1.909       .  S
O146        C156   1.280       .  A
O147       Ni153   1.923       .  S
O147        C157   1.284       .  A
O148       Ni153   1.924       .  S
O148        C158   1.282       .  A
O149       Ni154   1.932       .  S
O149        C158   1.284       .  A
O150       Ni154   1.922       .  S
O150        C157   1.281       .  A
O151       Ni154   1.939       .  S
O151        C156   1.286       .  A
O152       Ni154   1.935       .  S
O152        C155   1.285       .  A
Ni153      Ni154   2.384       .  S
C155       C3869   1.489       .  S
C156       C3589   1.508       .  S
C157       C3603   1.494       .  S
C158       C3830   1.498       .  S
O159       Ni167   1.931       .  S
O159        C169   1.284       .  A
O160       Ni167   1.926       .  S
O160        C170   1.283       .  A
O161       Ni167   1.928       .  S
O161        C171   1.283       .  A
O162       Ni167   1.931       .  S
O162        C172   1.283       .  A
O163       Ni168   1.914       .  S
O163        C172   1.279       .  A
O164       Ni168   1.902       .  S
O164        C171   1.279       .  A
O165       Ni168   1.912       .  S
O165        C170   1.280       .  A
O166       Ni168   1.915       .  S
O166        C169   1.281       .  A
Ni167      Ni168   2.379       .  S
C169       C3816   1.499       .  S
C170       C3561   1.511       .  S
C171       C3575   1.502       .  S
C172       C3760   1.484       .  S
O173       Ni179   1.915       .  S
O173        C194   1.270       .  A
O174       Ni197   1.928       .  S
O174        C183   1.275       .  A
O175       Ni179   1.893       .  S
O175       Ni197   1.901       .  S
O175       Ni191   1.923       .  S
O175        H198   0.966       .  S
C176        O193   1.278       .  A
C176        O185   1.273       .  A
C176       C3536   1.485       .  S
O177       Ni196   1.911       .  S
O177        C183   1.268       .  A
O178       Ni196   1.890       .  S
O178        C180   1.268       .  A
Ni179       O182   1.923       .  S
Ni179       O184   1.894       .  S
C180        O190   1.278       .  A
C180       C3505   1.492       .  S
O181       Ni197   1.918       .  S
O181        C187   1.275       .  A
O182        C187   1.276       .  A
C183       C3491   1.505       .  S
O184        C186   1.269       .  A
O185       Ni196   1.919       .  S
C186        O192   1.282       .  A
C186       C3480   1.492       .  S
C187       C3550   1.486       .  S
H188        O189   0.966       .  S
O189       Ni197   1.923       .  S
O189       Ni191   1.904       .  S
O189       Ni196   1.892       .  S
O190       Ni191   1.951       .  S
Ni191       O195   1.910       .  S
Ni191       O193   1.931       .  S
O192       Ni197   1.946       .  S
C194        O195   1.272       .  A
C194       C3519   1.492       .  S
O199       Ni205   1.905       .  S
O199        C220   1.263       .  A
O200       Ni223   1.920       .  S
O200        C209   1.269       .  A
O201       Ni205   1.918       .  S
O201       Ni223   1.927       .  S
O201       Ni217   1.928       .  S
O201        H224   0.967       .  S
C202        O219   1.270       .  A
C202        O211   1.269       .  A
C202       C3424   1.502       .  S
O203       Ni222   1.906       .  S
O203        C209   1.263       .  A
O204       Ni222   1.874       .  S
O204        C206   1.261       .  A
Ni205       O208   1.925       .  S
Ni205       O210   1.890       .  S
C206        O216   1.285       .  A
C206       C3407   1.495       .  S
O207       Ni223   1.909       .  S
O207        C213   1.268       .  A
O208        C213   1.268       .  A
C209       C3452   1.489       .  S
O210        C212   1.262       .  A
O211       Ni222   1.921       .  S
C212        O218   1.283       .  A
C212       C3438   1.503       .  S
C213       C3396   1.481       .  S
H214        O215   0.967       .  S
O215       Ni223   1.927       .  S
O215       Ni217   1.930       .  S
O215       Ni222   1.915       .  S
O216       Ni217   1.976       .  S
Ni217       O221   1.923       .  S
Ni217       O219   1.918       .  S
O218       Ni223   1.977       .  S
C220        O221   1.272       .  A
C220       C3463   1.487       .  S
O225       Ni231   1.932       .  S
O225        C246   1.269       .  A
O226       Ni249   1.913       .  S
O226        C235   1.266       .  A
O227       Ni231   1.923       .  S
O227       Ni249   1.917       .  S
O227       Ni243   1.910       .  S
O227        H250   0.967       .  S
C228        O245   1.262       .  A
C228        O237   1.272       .  A
C228       C3354   1.478       .  S
O229       Ni248   1.920       .  S
O229        C235   1.267       .  A
O230       Ni248   1.883       .  S
O230        C232   1.262       .  A
Ni231       O234   1.928       .  S
Ni231       O236   1.892       .  S
C232        O242   1.279       .  A
C232       C3368   1.490       .  S
O233       Ni249   1.902       .  S
O233        C239   1.268       .  A
O234        C239   1.273       .  A
C235       C3606   1.488       .  S
O236        C238   1.267       .  A
O237       Ni248   1.943       .  S
C238        O244   1.277       .  A
C238       C3340   1.478       .  S
C239       C3379   1.484       .  S
H240        O241   0.961       .  S
O241       Ni249   1.919       .  S
O241       Ni243   1.917       .  S
O241       Ni248   1.921       .  S
O242       Ni243   1.957       .  S
Ni243       O247   1.903       .  S
Ni243       O245   1.894       .  S
O244       Ni249   1.944       .  S
C246        O247   1.264       .  A
C246       C3323   1.485       .  S
O251       Ni257   1.907       .  S
O251        C272   1.266       .  A
O252       Ni275   1.910       .  S
O252        C261   1.269       .  A
O253       Ni257   1.910       .  S
O253       Ni275   1.910   1_556  S
O253       Ni269   1.921       .  S
O253        H276   0.966       .  S
C254        O271   1.274       .  A
C254        O263   1.275       .  A
C254       C3267   1.503       .  S
O255       Ni274   1.917       .  S
O255        C261   1.270       .  A
O256       Ni274   1.894   1_556  S
O256        C258   1.268       .  A
Ni257       O260   1.911   1_556  S
Ni257       O262   1.888   1_556  S
C258        O268   1.280       .  A
C258       C3281   1.487       .  S
O259       Ni275   1.919       .  S
O259        C265   1.274       .  A
O260        C265   1.270       .  A
C261       C3298   1.486       .  S
O262        C264   1.266       .  A
O263       Ni274   1.920   1_556  S
C264        O270   1.279       .  A
C264       C3253   1.497       .  S
C265       C3309   1.495       .  S
H266        O267   0.966       .  S
O267       Ni275   1.913       .  S
O267       Ni269   1.897   1_554  S
O267       Ni274   1.900       .  S
O268       Ni269   1.951       .  S
Ni269       O273   1.912       .  S
Ni269       O271   1.911       .  S
O270       Ni275   1.951       .  S
C272        O273   1.271       .  A
C272       C3715   1.480       .  S
O277       Ni283   1.919       .  S
O277        C298   1.269       .  A
O278       Ni301   1.919   1_554  S
O278        C287   1.268       .  A
O279       Ni283   1.922       .  S
O279       Ni301   1.924   1_655  S
O279       Ni295   1.931   1_556  S
O279        H302   0.966       .  S
C280        O297   1.272       .  A
C280        O289   1.266       .  A
C280       C3214   1.476       .  S
O281       Ni300   1.918       .  S
O281        C287   1.265       .  A
O282       Ni300   1.895   1_655  S
O282        C284   1.270       .  A
Ni283       O286   1.931   1_655  S
Ni283       O288   1.880   1_655  S
C284        O294   1.280       .  A
C284       C3242   1.491       .  S
O285       Ni301   1.900       .  S
O285        C291   1.263       .  A
O286        C291   1.270       .  A
C287       C3183   1.488       .  S
O288        C290   1.267       .  A
O289       Ni300   1.905   1_655  S
C290        O296   1.284       .  A
C290       C3197   1.489       .  S
C291       C3228   1.494       .  S
H292        O293   0.967       .  S
O293       Ni301   1.904   1_554  S
O293       Ni295   1.920   1_455  S
O293       Ni300   1.920       .  S
O294       Ni295   1.954       .  S
Ni295       O299   1.937   1_554  S
Ni295       O297   1.910       .  S
O296       Ni301   1.962       .  S
C298        O299   1.277       .  A
C298       C3634   1.509       .  S
O303       Ni309   1.917       .  S
O303        C324   1.268       .  A
O304       Ni327   1.930       .  S
O304        C313   1.277       .  A
O305       Ni309   1.906       .  S
O305       Ni327   1.915   1_565  S
O305       Ni321   1.922   1_565  S
O305        H328   0.966       .  S
C306        O323   1.273       .  A
C306        O315   1.277       .  A
C306       C3113   1.491       .  S
O307       Ni326   1.910       .  S
O307        C313   1.268       .  A
O308       Ni326   1.884       .  S
O308        C310   1.265       .  A
Ni309       O312   1.915       .  S
Ni309       O314   1.896       .  S
C310        O320   1.279       .  A
C310       C3172   1.488       .  S
O311       Ni327   1.919   1_565  S
O311        C317   1.273       .  A
O312        C317   1.271       .  A
C313       C3141   1.496       .  S
O314        C316   1.270       .  A
O315       Ni326   1.918       .  S
C316        O322   1.281       .  A
C316       C3127   1.499       .  S
C317       C3155   1.477       .  S
H318        O319   0.966       .  S
O319       Ni327   1.908       .  S
O319       Ni321   1.889       .  S
O319       Ni326   1.882       .  S
O320       Ni321   1.950       .  S
Ni321       O325   1.907   1_545  S
Ni321       O323   1.904       .  S
O322       Ni327   1.954   1_565  S
C324        O325   1.268       .  A
C324       C3701   1.484       .  S
O329       Ni335   1.910       .  S
O329        C350   1.267       .  A
O330       Ni353   1.900       .  S
O330        C339   1.267       .  A
O331       Ni335   1.902       .  S
O331       Ni353   1.902       .  S
O331       Ni347   1.912       .  S
O331        H354   0.966       .  S
C332        O349   1.274       .  A
C332        O341   1.276       .  A
C332       C3662   1.507       .  S
O333       Ni352   1.901       .  S
O333        C339   1.266       .  A
O334       Ni352   1.883       .  S
O334        C336   1.252       .  A
Ni335       O338   1.907       .  S
Ni335       O340   1.913       .  S
C336        O346   1.279       .  A
C336       C3099   1.500       .  S
O337       Ni353   1.948       .  S
O337        C343   1.282       .  A
O338        C343   1.272       .  A
C339       C3043   1.471       .  S
O340        C342   1.269       .  A
O341       Ni352   1.946       .  S
C342        O348   1.265       .  A
C342       C3057   1.472       .  S
C343       C3085   1.498       .  S
H344        O345   0.967       .  S
O345       Ni353   1.943       .  S
O345       Ni347   1.927       .  S
O345       Ni352   1.888       .  S
O346       Ni347   1.989       .  S
Ni347       O351   1.909       .  S
Ni347       O349   1.922       .  S
O348       Ni353   1.914       .  S
C350        O351   1.271       .  A
C350       C3071   1.482       .  S
O355       Ni361   1.923   1_455  S
O355        C376   1.274       .  A
O356       Ni379   1.920       .  S
O356        C365   1.275       .  A
O357       Ni361   1.889       .  S
O357       Ni379   1.901       .  S
O357       Ni373   1.915   1_655  S
O357        H380   0.966       .  S
C358        O375   1.278       .  A
C358        O367   1.269       .  A
C358       C3029   1.490       .  S
O359       Ni378   1.910   1_655  S
O359        C365   1.268       .  A
O360       Ni378   1.918   1_655  S
O360        C362   1.271       .  A
Ni361       O364   1.931       .  S
Ni361       O366   1.897   1_655  S
C362        O372   1.270       .  A
C362       C2987   1.477       .  S
O363       Ni379   1.905       .  S
O363        C369   1.273       .  A
O364        C369   1.277       .  A
C365       C3001   1.490       .  S
O366        C368   1.268       .  A
O367       Ni378   1.904       .  S
C368        O374   1.283       .  A
C368       C2976   1.489       .  S
C369       C3690   1.490       .  S
H370        O371   0.966       .  S
O371       Ni379   1.902   1_455  S
O371       Ni373   1.896       .  S
O371       Ni378   1.889       .  S
O372       Ni373   1.925   1_655  S
Ni373       O377   1.900       .  S
Ni373       O375   1.932       .  S
O374       Ni379   1.965   1_455  S
C376        O377   1.270       .  A
C376       C3018   1.490       .  S
O381       Ni387   1.916       .  S
O381        C402   1.268       .  A
O382       Ni405   1.916       .  S
O382        C391   1.271       .  A
O383       Ni387   1.878   1_545  S
O383       Ni405   1.893   1_554  S
O383       Ni399   1.909   1_545  S
O383        H406   0.966       .  S
C384        O401   1.280       .  A
C384        O393   1.277       .  A
C384       C2945   1.487       .  S
O385       Ni404   1.909   1_556  S
O385        C391   1.266       .  A
O386       Ni404   1.898       .  S
O386        C388   1.266       .  A
Ni387       O390   1.915   1_564  S
Ni387       O392   1.899   1_554  S
C388        O398   1.278       .  A
C388       C2903   1.484       .  S
O389       Ni405   1.920       .  S
O389        C395   1.281       .  A
O390        C395   1.279       .  A
C391       C2959   1.482       .  S
O392        C394   1.266       .  A
O393       Ni404   1.913   1_565  S
C394        O400   1.274       .  A
C394       C3592   1.482       .  S
C395       C2917   1.478       .  S
H396        O397   0.966       .  S
O397       Ni405   1.915   1_565  S
O397       Ni399   1.894   1_556  S
O397       Ni404   1.880   1_566  S
O398       Ni399   1.950   1_545  S
Ni399       O403   1.920       .  S
Ni399       O401   1.918       .  S
O400       Ni405   1.942   1_565  S
C402        O403   1.275       .  A
C402       C2931   1.476       .  S
C407       C2878   1.474       .  S
C407        C408   1.394       .  A
C407        C412   1.396       .  A
C408        C409   1.402       .  A
C408        H413   1.084       .  S
C409       C2889   1.489       .  S
C409        C410   1.405       .  A
C410        C411   1.401       .  A
C410        H414   1.083       .  S
C411       C2861   1.475       .  S
C411        C412   1.397       .  A
C412        H415   1.084       .  S
O416       Ni424   1.935       .  S
O416        C426   1.285       .  A
O417       Ni424   1.932       .  S
O417        C427   1.285       .  A
O418       Ni424   1.896       .  S
O418        C428   1.275       .  A
O419       Ni424   1.897       .  S
O419        C429   1.277       .  A
O420       Ni425   1.912       .  S
O420        C429   1.279       .  A
O421       Ni425   1.900       .  S
O421        C428   1.279       .  A
O422       Ni425   1.907       .  S
O422        C427   1.279       .  A
O423       Ni425   1.910       .  S
O423        C426   1.279       .  A
Ni424      Ni425   2.392       .  S
C426       C2847   1.491       .  S
C427       C3508   1.497       .  S
C428       C4009   1.455       .  S
C429       C2875   1.463       .  S
C430       C2805   1.490       .  S
C430        C431   1.401       .  A
C430        C435   1.405       .  A
C431        C432   1.404       .  A
C431        H436   1.083       .  S
C432       C2833   1.497   1_565  S
C432        C433   1.411       .  A
C433        C434   1.414       .  A
C433        H437   1.082       .  S
C434       C2819   1.520       .  S
C434        C435   1.409       .  A
C435        H438   1.081       .  S
O439       Ni447   1.943       .  S
O439        C449   1.287       .  A
O440       Ni447   1.935       .  S
O440        C450   1.286       .  A
O441       Ni447   1.911       .  S
O441        C451   1.278       .  A
O442       Ni447   1.904       .  S
O442        C452   1.276       .  A
O443       Ni448   1.925       .  S
O443        C452   1.284       .  A
O444       Ni448   1.931       .  S
O444        C451   1.286       .  A
O445       Ni448   1.893       .  S
O445        C450   1.275       .  A
O446       Ni448   1.906       .  S
O446        C449   1.277       .  A
Ni447      Ni448   2.384       .  S
C449       C2808   1.490       .  S
C450       C3060   1.499       .  S
C451       C2794   1.498       .  S
C452       C2780   1.475       .  S
O453       Ni461   1.902       .  S
O453        C463   1.278       .  A
O454       Ni461   1.897       .  S
O454        C464   1.277       .  A
O455       Ni461   1.911       .  S
O455        C465   1.281       .  A
O456       Ni461   1.908       .  S
O456        C466   1.279       .  A
O457       Ni462   1.924       .  S
O457        C466   1.281       .  A
O458       Ni462   1.924       .  S
O458        C465   1.282       .  A
O459       Ni462   1.915       .  S
O459        C464   1.282       .  A
O460       Ni462   1.916       .  S
O460        C463   1.282       .  A
Ni461      Ni462   2.381       .  S
C463       C2892   1.481       .  S
C464       C2948   1.503       .  S
C465       C2822   1.503       .  S
C466       C3312   1.474       .  S
C467       C2763   1.490       .  S
C467        C468   1.410       .  A
C467        C472   1.400       .  A
C468        C469   1.410       .  A
C468        H473   1.083       .  S
C469       C2752   1.508   1_565  S
C469        C470   1.409       .  A
C470        C471   1.401       .  A
C470        H474   1.084       .  S
C471       C2735   1.483       .  S
C471        C472   1.398       .  A
C472        H475   1.084       .  S
C476       C2791   1.507       .  S
C476        C477   1.411       .  A
C476        C481   1.407       .  A
C477        C478   1.408       .  A
C477        H482   1.083       .  S
C478       C2850   1.499       .  S
C478        C479   1.403       .  A
C479        C480   1.404       .  A
C479        H483   1.084       .  S
C480       C2721   1.494       .  S
C480        C481   1.403       .  A
C481        H484   1.083       .  S
O485       Ni493   1.917       .  S
O485        C495   1.281       .  A
O486       Ni493   1.917       .  S
O486        C496   1.281       .  A
O487       Ni493   1.922       .  S
O487        C497   1.283       .  A
O488       Ni493   1.922       .  S
O488        C498   1.281       .  A
O489       Ni494   1.904       .  S
O489        C498   1.281       .  A
O490       Ni494   1.909       .  S
O490        C497   1.280       .  A
O491       Ni494   1.909       .  S
O491        C496   1.279       .  A
O492       Ni494   1.914       .  S
O492        C495   1.280       .  A
Ni493      Ni494   2.391       .  S
C495       C2738   1.476       .  S
C496       C3337   1.473       .  S
C497       C2724   1.487       .  S
C498       C3158   1.488       .  S
O499       Ni507   1.937       .  S
O499        C509   1.286       .  A
O500       Ni507   1.942       .  S
O500        C510   1.289       .  A
O501       Ni507   1.909       .  S
O501        C511   1.278       .  A
O502       Ni507   1.911       .  S
O502        C512   1.277       .  A
O503       Ni508   1.922       .  S
O503        C512   1.282       .  A
O504       Ni508   1.924       .  S
O504        C511   1.284       .  A
O505       Ni508   1.914       .  S
O505        C510   1.278       .  A
O506       Ni508   1.914       .  S
O506        C509   1.279       .  A
Ni507      Ni508   2.385       .  S
C509       C2836   1.496       .  S
C510       C3449   1.503       .  S
C511       C2749   1.503       .  S
C512       C3970   1.474       .  S
O513       Ni521   1.913       .  S
O513        C523   1.278       .  A
O514       Ni521   1.916       .  S
O514        C524   1.280       .  A
O515       Ni521   1.928       .  S
O515        C525   1.283       .  A
O516       Ni521   1.931       .  S
O516        C526   1.285       .  A
O517       Ni522   1.906       .  S
O517        C526   1.279       .  A
O518       Ni522   1.897       .  S
O518        C525   1.278       .  A
O519       Ni522   1.908       .  S
O519        C524   1.278       .  A
O520       Ni522   1.915       .  S
O520        C523   1.281       .  A
Ni521      Ni522   2.389       .  S
C523       C2864   1.472       .  S
C524       C2707   1.470       .  S
C525       C3015   1.496       .  S
C526       C2766   1.490       .  S
O527       Ni533   1.903       .  S
O527        C548   1.260       .  A
O528       Ni551   1.902       .  S
O528        C537   1.267       .  A
O529       Ni533   1.881       .  S
O529       Ni551   1.883   1_545  S
O529       Ni545   1.902       .  S
O529        H552   0.966       .  S
C530        O547   1.270       .  A
C530        O539   1.271       .  A
C530       C2696   1.493       .  S
O531       Ni550   1.923   1_565  S
O531        C537   1.270       .  A
O532       Ni550   1.899       .  S
O532        C534   1.272       .  A
Ni533       O536   1.910   1_545  S
Ni533       O538   1.891   1_545  S
C534        O544   1.282       .  A
C534       C2668   1.490       .  S
O535       Ni551   1.924       .  S
O535        C541   1.281       .  A
O536        C541   1.276       .  A
C537       C2777   1.475       .  S
O538        C540   1.262       .  A
O539       Ni550   1.914       .  S
C540        O546   1.267       .  A
C540       C3676   1.470       .  S
C541       C2679   1.469       .  S
H542        O543   0.966       .  S
O543       Ni551   1.921       .  S
O543       Ni545   1.921   1_565  S
O543       Ni550   1.894   1_565  S
O544       Ni545   1.957       .  S
Ni545       O549   1.939       .  S
Ni545       O547   1.899       .  S
O546       Ni551   1.927       .  S
C548        O549   1.276       .  A
C548       C2651   1.512       .  S
O553       Ni559   1.916       .  S
O553        C574   1.265       .  A
O554       Ni577   1.915       .  S
O554        C563   1.272       .  A
O555       Ni559   1.906   1_554  S
O555       Ni577   1.909       .  S
O555       Ni571   1.893   1_554  S
O555        H578   0.967       .  S
C556        O573   1.263       .  A
C556        O565   1.277       .  A
C556       C2623   1.501       .  S
O557       Ni576   1.928   1_554  S
O557        C563   1.273       .  A
O558       Ni576   1.897   1_554  S
O558        C560   1.269       .  A
Ni559       O562   1.900   1_556  S
Ni559       O564   1.909       .  S
C560        O570   1.284       .  A
C560       C2609   1.491       .  S
O561       Ni577   1.927       .  S
O561        C567   1.282       .  A
O562        C567   1.271       .  A
C563       C2637   1.487       .  S
O564        C566   1.269       .  A
O565       Ni576   1.931       .  S
C566        O572   1.268       .  A
C566       C3578   1.482       .  S
C567       C2584   1.480       .  S
H568        O569   0.966       .  S
O569       Ni577   1.923   1_556  S
O569       Ni571   1.900       .  S
O569       Ni576   1.900       .  S
O570       Ni571   1.960   1_554  S
Ni571       O575   1.905       .  S
Ni571       O573   1.885       .  S
O572       Ni577   1.929   1_556  S
C574        O575   1.266       .  A
C574       C2595   1.473       .  S
C579       C2553   1.504       .  S
C579        C580   1.407       .  A
C579        C584   1.414       .  A
C580        C581   1.401       .  A
C580        H585   1.084       .  S
C581       C2570   1.477       .  S
C581        C582   1.394       .  A
C582        C583   1.397       .  A
C582        H586   1.085       .  S
C583       C2542   1.488       .  S
C583        C584   1.410       .  A
C584        H587   1.083       .  S
C588       C2497   1.494       .  S
C588        C589   1.404       .  A
C588        C593   1.404       .  A
C589        C590   1.400       .  A
C589        H594   1.084       .  S
C590       C2525   1.481       .  S
C590        C591   1.401       .  A
C591        C592   1.405       .  A
C591        H595   1.084       .  S
C592       C2511   1.493       .  S
C592        C593   1.405       .  A
C593        H596   1.084       .  S
C597       C2469   1.509       .  S
C597        C598   1.418       .  A
C597        C602   1.406       .  A
C598        C599   1.413       .  A
C598        H603   1.081       .  S
C599       C2483   1.498       .  S
C599        C600   1.399       .  A
C600        C601   1.394       .  A
C600        H604   1.084       .  S
C601       C2455   1.475       .  S
C601        C602   1.393       .  A
C602        H605   1.083       .  S
C606       C2441   1.502   1_556  S
C606        C607   1.409       .  A
C606        C611   1.405       .  A
C607        C608   1.415       .  A
C607        H612   1.082       .  S
C608       C2427   1.513       .  S
C608        C609   1.407       .  A
C609        C610   1.400       .  A
C609        H613   1.082       .  S
C610       C2413   1.484       .  S
C610        C611   1.401       .  A
C611        H614   1.084       .  S
O615       Ni623   1.904       .  S
O615        C625   1.277       .  A
O616       Ni623   1.898       .  S
O616        C626   1.278       .  A
O617       Ni623   1.923       .  S
O617        C627   1.281       .  A
O618       Ni623   1.934       .  S
O618        C628   1.285       .  A
O619       Ni624   1.912       .  S
O619        C628   1.277       .  A
O620       Ni624   1.912       .  S
O620        C627   1.279       .  A
O621       Ni624   1.938       .  S
O621        C626   1.286       .  A
O622       Ni624   1.940       .  S
O622        C625   1.287       .  A
Ni623      Ni624   2.385       .  S
C625       C2472   1.510       .  S
C626       C3284   1.491       .  S
C627       C3351   1.480       .  S
C628       C2416   1.483       .  S
O629       Ni637   1.912       .  S
O629        C639   1.278       .  A
O630       Ni637   1.899       .  S
O630        C640   1.277       .  A
O631       Ni637   1.907       .  S
O631        C641   1.281       .  A
O632       Ni637   1.917       .  S
O632        C642   1.282       .  A
O633       Ni638   1.909       .  S
O633        C642   1.280       .  A
O634       Ni638   1.903       .  S
O634        C641   1.278       .  A
O635       Ni638   1.908       .  S
O635        C640   1.279       .  A
O636       Ni638   1.909       .  S
O636        C639   1.279       .  A
Ni637      Ni638   2.391       .  S
C639       C2458   1.467       .  S
C640       C2626   1.463       .  S
C641       C2399   1.493       .  S
C642       C2500   1.484       .  S
O643       Ni651   1.931       .  S
O643        C653   1.286       .  A
O644       Ni651   1.930       .  S
O644        C654   1.285       .  A
O645       Ni651   1.901       .  S
O645        C655   1.276       .  A
O646       Ni651   1.904       .  S
O646        C656   1.277       .  A
O647       Ni652   1.935       .  S
O647        C656   1.286       .  A
O648       Ni652   1.926       .  S
O648        C655   1.283       .  A
O649       Ni652   1.902       .  S
O649        C654   1.278       .  A
O650       Ni652   1.906       .  S
O650        C653   1.278       .  A
Ni651      Ni652   2.387       .  S
C653       C2556   1.490       .  S
C654       C4026   1.500       .  S
C655       C3421   1.475       .  S
C656       C2486   1.485       .  S
O657       Ni665   1.919       .  S
O657        C667   1.280       .  A
O658       Ni665   1.913       .  S
O658        C668   1.281       .  A
O659       Ni665   1.919       .  S
O659        C669   1.282       .  A
O660       Ni665   1.914       .  S
O660        C670   1.279       .  A
O661       Ni666   1.915       .  S
O661        C670   1.281       .  A
O662       Ni666   1.908       .  S
O662        C669   1.279       .  A
O663       Ni666   1.934       .  S
O663        C668   1.285       .  A
O664       Ni666   1.932       .  S
O664        C667   1.284       .  A
Ni665      Ni666   2.387       .  S
C667       C2444   1.490       .  S
C668       C3956   1.507       .  S
C669       C2514   1.484       .  S
C670       C3547   1.477       .  S
O671       Ni679   1.907       .  S
O671        C681   1.278       .  A
O672       Ni679   1.912       .  S
O672        C682   1.280       .  A
O673       Ni679   1.916       .  S
O673        C683   1.282       .  A
O674       Ni679   1.924       .  S
O674        C684   1.283       .  A
O675       Ni680   1.906       .  S
O675        C684   1.279       .  A
O676       Ni680   1.900       .  S
O676        C683   1.278       .  A
O677       Ni680   1.918       .  S
O677        C682   1.281       .  A
O678       Ni680   1.922       .  S
O678        C681   1.282       .  A
Ni679      Ni680   2.391       .  S
C681       C2528   1.475       .  S
C682       C3169   1.478       .  S
C683       C2962   1.482       .  S
C684       C2539   1.483       .  S
O685       Ni693   1.935       .  S
O685        C695   1.286       .  A
O686       Ni693   1.927       .  S
O686        C696   1.284       .  A
O687       Ni693   1.907       .  S
O687        C697   1.277       .  A
O688       Ni693   1.914       .  S
O688        C698   1.279       .  A
O689       Ni694   1.914       .  S
O689        C698   1.280       .  A
O690       Ni694   1.913       .  S
O690        C697   1.281       .  A
O691       Ni694   1.903       .  S
O691        C696   1.278       .  A
O692       Ni694   1.909       .  S
O692        C695   1.279       .  A
Ni693      Ni694   2.388       .  S
C695       C2430   1.510       .  S
C696       C2385   1.486       .  S
C697       C3225   1.473       .  S
C698       C2567   1.472       .  S
C699       C2343   1.509       .  S
C699        C700   1.420       .  A
C699        C704   1.406       .  A
C700        C701   1.415       .  A
C700        H705   1.083       .  S
C701       C2371   1.498       .  S
C701        C702   1.399       .  A
C702        C703   1.390       .  A
C702        H706   1.085       .  S
C703       C2357   1.478       .  S
C703        C704   1.400       .  A
C704        H707   1.083       .  S
O708       Ni716   1.900       .  S
O708        C718   1.277       .  A
O709       Ni716   1.909       .  S
O709        C719   1.277       .  A
O710       Ni716   1.927       .  S
O710        C720   1.285       .  A
O711       Ni716   1.932       .  S
O711        C721   1.285       .  A
O712       Ni717   1.921       .  S
O712        C721   1.280       .  A
O713       Ni717   1.916       .  S
O713        C720   1.279       .  A
O714       Ni717   1.933       .  S
O714        C719   1.286       .  A
O715       Ni717   1.932       .  S
O715        C718   1.285       .  A
Ni716      Ni717   2.377       .  S
C718       C2346   1.490       .  S
C719       C4040   1.516       .  S
C720       C3088   1.520       .  S
C721       C2329   1.493       .  S
C722       C2301   1.494       .  S
C722        C723   1.409       .  A
C722        C727   1.403       .  A
C723        C724   1.410       .  A
C723        H728   1.083       .  S
C724       C2315   1.503   1_554  S
C724        C725   1.407       .  A
C725        C726   1.397       .  A
C725        H729   1.084       .  S
C726       C2287   1.482       .  S
C726        C727   1.399       .  A
C727        H730   1.084       .  S
C731       C2248   1.477       .  S
C731        C732   1.404       .  A
C731        C736   1.392       .  A
C732        C733   1.413       .  A
C732        H737   1.082       .  S
C733       C2273   1.507   1_554  S
C733        C734   1.408       .  A
C734        C735   1.402       .  A
C734        H738   1.081       .  S
C735       C2259   1.487       .  S
C735        C736   1.392       .  A
C736        H739   1.085       .  S
C740       C2234   1.510       .  S
C740        C741   1.413       .  A
C740        C745   1.411       .  A
C741        C742   1.409       .  A
C741        H746   1.083       .  S
C742       C2332   1.498       .  S
C742        C743   1.403       .  A
C743        C744   1.403       .  A
C743        H747   1.084       .  S
C744       C2217   1.504       .  S
C744        C745   1.410       .  A
C745        H748   1.083       .  S
O749       Ni757   1.937       .  S
O749        C759   1.286       .  A
O750       Ni757   1.939       .  S
O750        C760   1.285       .  A
O751       Ni757   1.917       .  S
O751        C761   1.281       .  A
O752       Ni757   1.918       .  S
O752        C762   1.279       .  A
O753       Ni758   1.911       .  S
O753        C762   1.280       .  A
O754       Ni758   1.907       .  S
O754        C761   1.280       .  A
O755       Ni758   1.898       .  S
O755        C760   1.278       .  A
O756       Ni758   1.910       .  S
O756        C759   1.279       .  A
Ni757      Ni758   2.386       .  S
C759       C2220   1.494       .  S
C760       C3295   1.494       .  S
C761       C3494   1.494       .  S
C762       C2245   1.471       .  S
O763       Ni771   1.935       .  S
O763        C773   1.285       .  A
O764       Ni771   1.926       .  S
O764        C774   1.283       .  A
O765       Ni771   1.909       .  S
O765        C775   1.278       .  A
O766       Ni771   1.904       .  S
O766        C776   1.278       .  A
O767       Ni772   1.916       .  S
O767        C776   1.283       .  A
O768       Ni772   1.924       .  S
O768        C775   1.282       .  A
O769       Ni772   1.923       .  S
O769        C774   1.282       .  A
O770       Ni772   1.922       .  S
O770        C773   1.282       .  A
Ni771      Ni772   2.387       .  S
C773       C2231   1.503       .  S
C774       C2612   1.496       .  S
C775       C2290   1.476       .  S
C776       C3942   1.488       .  S
O777       Ni785   1.915       .  S
O777        C787   1.281       .  A
O778       Ni785   1.914       .  S
O778        C788   1.278       .  A
O779       Ni785   1.912       .  S
O779        C789   1.280       .  A
O780       Ni785   1.921       .  S
O780        C790   1.282       .  A
O781       Ni786   1.918       .  S
O781        C790   1.282       .  A
O782       Ni786   1.918       .  S
O782        C789   1.281       .  A
O783       Ni786   1.924       .  S
O783        C788   1.282       .  A
O784       Ni786   1.925       .  S
O784        C787   1.282       .  A
Ni785      Ni786   2.379       .  S
C787       C2318   1.499       .  S
C788       C3365   1.479       .  S
C789       C2203   1.509       .  S
C790       C2276   1.507       .  S
O791       Ni799   1.927       .  S
O791        C801   1.283       .  A
O792       Ni799   1.918       .  S
O792        C802   1.284       .  A
O793       Ni799   1.899       .  S
O793        C803   1.276       .  A
O794       Ni799   1.890       .  S
O794        C804   1.276       .  A
O795       Ni800   1.921       .  S
O795        C804   1.282       .  A
O796       Ni800   1.919       .  S
O796        C803   1.282       .  A
O797       Ni800   1.911       .  S
O797        C802   1.278       .  A
O798       Ni800   1.915       .  S
O798        C801   1.280       .  A
Ni799      Ni800   2.387       .  S
C801       C2304   1.487       .  S
C802       C3004   1.487       .  S
C803       C2360   1.468       .  S
C804       C3211   1.496       .  S
O805       Ni813   1.919       .  S
O805        C815   1.283       .  A
O806       Ni813   1.916       .  S
O806        C816   1.281       .  A
O807       Ni813   1.908       .  S
O807        C817   1.278       .  A
O808       Ni813   1.907       .  S
O808        C818   1.279       .  A
O809       Ni814   1.935       .  S
O809        C818   1.285       .  A
O810       Ni814   1.925       .  S
O810        C817   1.282       .  A
O811       Ni814   1.896       .  S
O811        C816   1.278       .  A
O812       Ni814   1.899       .  S
O812        C815   1.276       .  A
Ni813      Ni814   2.385       .  S
C815       C2262   1.484       .  S
C816       C2682   1.495       .  S
C817       C2934   1.476       .  S
C818       C2374   1.495       .  S
O819       Ni825   1.931       .  S
O819        C840   1.273       .  A
O820       Ni843   1.934       .  S
O820        C829   1.273       .  A
O821       Ni825   1.885       .  S
O821       Ni843   1.917       .  S
O821       Ni837   1.918       .  S
O821        H844   0.966       .  S
C822        O839   1.282       .  A
C822        O831   1.273       .  A
C822       C3620   1.468       .  S
O823       Ni842   1.887       .  S
O823        C829   1.256       .  A
O824       Ni842   1.898       .  S
O824        C826   1.263       .  A
Ni825       O828   1.933       .  S
Ni825       O830   1.887       .  S
C826        O836   1.266       .  A
C826       C2206   1.476       .  S
O827       Ni843   1.896       .  S
O827        C833   1.268       .  A
O828        C833   1.277       .  A
C829       C2402   1.502       .  S
O830        C832   1.267       .  A
O831       Ni842   1.895       .  S
C832        O838   1.283       .  A
C832       C2161   1.487       .  S
C833       C2175   1.476       .  S
H834        O835   0.966       .  S
O835       Ni843   1.899       .  S
O835       Ni837   1.889       .  S
O835       Ni842   1.882       .  S
O836       Ni837   1.926       .  S
Ni837       O841   1.911       .  S
Ni837       O839   1.929       .  S
O838       Ni843   1.958       .  S
C840        O841   1.269       .  A
C840       C2189   1.503       .  S
O845       Ni851   1.904   1_655  S
O845        C866   1.267       .  A
O846       Ni869   1.892       .  S
O846        C855   1.268       .  A
O847       Ni851   1.892       .  S
O847       Ni869   1.893   1_545  S
O847       Ni863   1.920   1_455  S
O847        H870   0.966       .  S
C848        O865   1.280       .  A
C848        O857   1.277       .  A
C848       C2147   1.514       .  S
O849       Ni868   1.926   1_465  S
O849        C855   1.272       .  A
O850       Ni868   1.907   1_455  S
O850        C852   1.269       .  A
Ni851       O854   1.914   1_545  S
Ni851       O856   1.894   1_445  S
C852        O862   1.275       .  A
C852       C2105   1.488       .  S
O853       Ni869   1.916       .  S
O853        C859   1.273       .  A
O854        C859   1.273       .  A
C855       C2710   1.469       .  S
O856        C858   1.268       .  A
O857       Ni868   1.921       .  S
C858        O864   1.281       .  A
C858       C3648   1.514       .  S
C859       C2133   1.508       .  S
H860        O861   0.966   1_565  S
O861       Ni869   1.907   1_645  S
O861       Ni863   1.891       .  S
O861       Ni868   1.895       .  S
O862       Ni863   1.942   1_455  S
Ni863       O867   1.897       .  S
Ni863       O865   1.927       .  S
O864       Ni869   1.958   1_655  S
C866        O867   1.267       .  A
C866       C2119   1.467       .  S
C871       C2063   1.482       .  S
C871        C872   1.398       .  A
C871        C876   1.403       .  A
C872        C873   1.401       .  A
C872        H877   1.083       .  S
C873       C2091   1.496       .  S
C873        C874   1.405       .  A
C874        C875   1.403       .  A
C874        H878   1.083       .  S
C875       C2077   1.493       .  S
C875        C876   1.406       .  A
C876        H879   1.084       .  S
C880       C2049   1.492       .  S
C880        C881   1.401       .  A
C880        C885   1.403       .  A
C881        C882   1.404       .  A
C881        H886   1.084       .  S
C882       C2038   1.498       .  S
C882        C883   1.408       .  A
C883        C884   1.411       .  A
C883        H887   1.082       .  S
C884       C2024   1.509       .  S
C884        C885   1.409       .  A
C885        H888   1.083       .  S
C889       C1993   1.502       .  S
C889        C890   1.411       .  A
C889        C894   1.406       .  A
C890        C891   1.412       .  A
C890        H895   1.081       .  S
C891       C2007   1.518       .  S
C891        C892   1.412       .  A
C892        C893   1.406       .  A
C892        H896   1.083       .  S
C893       C1979   1.501       .  S
C893        C894   1.408       .  A
C894        H897   1.083       .  S
O898       Ni906   1.930       .  S
O898        C908   1.285       .  A
O899       Ni906   1.929       .  S
O899        C909   1.283       .  A
O900       Ni906   1.914       .  S
O900        C910   1.281       .  A
O901       Ni906   1.924       .  S
O901        C911   1.281       .  A
O902       Ni907   1.940       .  S
O902        C911   1.286       .  A
O903       Ni907   1.932       .  S
O903        C910   1.284       .  A
O904       Ni907   1.913       .  S
O904        C909   1.279       .  A
O905       Ni907   1.915       .  S
O905        C908   1.280       .  A
Ni906      Ni907   2.380       .  S
C908       C2021   1.504       .  S
C909       C3928   1.483       .  S
C910       C2665   1.512       .  S
C911       C1996   1.500       .  S
O912       Ni920   1.936       .  S
O912        C922   1.286       .  A
O913       Ni920   1.934       .  S
O913        C923   1.285       .  A
O914       Ni920   1.898       .  S
O914        C924   1.276       .  A
O915       Ni920   1.892       .  S
O915        C925   1.274       .  A
O916       Ni921   1.942       .  S
O916        C925   1.288       .  A
O917       Ni921   1.950       .  S
O917        C924   1.290       .  A
O918       Ni921   1.908       .  S
O918        C923   1.277       .  A
O919       Ni921   1.902       .  S
O919        C922   1.275       .  A
Ni920      Ni921   2.387       .  S
C922       C2066   1.478       .  S
C923       C3410   1.481       .  S
C924       C1982   1.497       .  S
C925       C3144   1.499       .  S
C926       C1937   1.465       .  S
C926        C927   1.394       .  A
C926        C931   1.389       .  A
C927        C928   1.401       .  A
C927        H932   1.083       .  S
C928       C1965   1.503       .  S
C928        C929   1.412       .  A
C929        C930   1.411       .  A
C929        H933   1.079       .  S
C930       C1954   1.496       .  S
C930        C931   1.398       .  A
C931        H934   1.084       .  S
O935       Ni943   1.911       .  S
O935        C945   1.279       .  A
O936       Ni943   1.909       .  S
O936        C946   1.279       .  A
O937       Ni943   1.918       .  S
O937        C947   1.282       .  A
O938       Ni943   1.909       .  S
O938        C948   1.281       .  A
O939       Ni944   1.880       .  S
O939        C948   1.274       .  A
O940       Ni944   1.893       .  S
O940        C947   1.274       .  A
O941       Ni944   1.929       .  S
O941        C946   1.284       .  A
O942       Ni944   1.925       .  S
O942        C945   1.285       .  A
Ni943      Ni944   2.389       .  S
C945       C2010   1.499       .  S
C946       C2178   1.480       .  S
C947       C1940   1.463       .  S
C948       C4054   1.471       .  S
O949       Ni957   1.906       .  S
O949        C959   1.279       .  A
O950       Ni957   1.900       .  S
O950        C960   1.276       .  A
O951       Ni957   1.918       .  S
O951        C961   1.282       .  A
O952       Ni957   1.916       .  S
O952        C962   1.281       .  A
O953       Ni958   1.918       .  S
O953        C962   1.280       .  A
O954       Ni958   1.927       .  S
O954        C961   1.282       .  A
O955       Ni958   1.909       .  S
O955        C960   1.282       .  A
O956       Ni958   1.920       .  S
O956        C959   1.282       .  A
Ni957      Ni958   2.389       .  S
C959       C2094   1.488       .  S
C960       C3074   1.477       .  S
C961       C2035   1.492       .  S
C962       C3382   1.475       .  S
O963       Ni971   1.916       .  S
O963        C973   1.280       .  A
O964       Ni971   1.907       .  S
O964        C974   1.281       .  A
O965       Ni971   1.905       .  S
O965        C975   1.280       .  A
O966       Ni971   1.918       .  S
O966        C976   1.280       .  A
O967       Ni972   1.929       .  S
O967        C976   1.283       .  A
O968       Ni972   1.922       .  S
O968        C975   1.282       .  A
O969       Ni972   1.900       .  S
O969        C974   1.277       .  A
O970       Ni972   1.898       .  S
O970        C973   1.279       .  A
Ni971      Ni972   2.384       .  S
C973       C1968   1.482       .  S
C974       C2122   1.478       .  S
C975       C1923   1.510       .  S
C976       C2052   1.484       .  S
O977       Ni985   1.920       .  S
O977        C987   1.284       .  A
O978       Ni985   1.919       .  S
O978        C988   1.282       .  A
O979       Ni985   1.907       .  S
O979        C989   1.277       .  A
O980       Ni985   1.905       .  S
O980        C990   1.278       .  A
O981       Ni986   1.937       .  S
O981        C990   1.285       .  A
O982       Ni986   1.924       .  S
O982        C989   1.282       .  A
O983       Ni986   1.897       .  S
O983        C988   1.277       .  A
O984       Ni986   1.900       .  S
O984        C987   1.277       .  A
Ni985      Ni986   2.384       .  S
C987       C1951   1.491       .  S
C988       C2920   1.501       .  S
C989       C2598   1.473       .  S
C990       C2080   1.488       .  S
C991       C1895   1.487   1_455  S
C991        C992   1.405       .  A
C991        C996   1.404       .  A
C992        C993   1.408       .  A
C992        H997   1.084       .  S
C993       C1909   1.499       .  S
C993        C994   1.404       .  A
C994        C995   1.402       .  A
C994        H998   1.084       .  S
C995       C1881   1.484       .  S
C995        C996   1.402       .  A
C996        H999   1.084       .  S
O1000     Ni1008   1.897       .  S
O1000      C1010   1.276       .  A
O1001     Ni1008   1.896       .  S
O1001      C1011   1.276       .  A
O1002     Ni1008   1.923       .  S
O1002      C1012   1.282       .  A
O1003     Ni1008   1.923       .  S
O1003      C1013   1.285       .  A
O1004     Ni1009   1.926       .  S
O1004      C1013   1.280       .  A
O1005     Ni1009   1.913       .  S
O1005      C1012   1.279       .  A
O1006     Ni1009   1.929       .  S
O1006      C1011   1.285       .  A
O1007     Ni1009   1.934       .  S
O1007      C1010   1.286       .  A
Ni1008    Ni1009   2.383       .  S
C1010      C1867   1.497       .  S
C1011      C3032   1.497       .  S
C1012      C1884   1.478       .  S
C1013      C3533   1.502       .  S
C1014      C1853   1.493       .  S
C1014      C1015   1.405       .  A
C1014      C1019   1.408       .  A
C1015      C1016   1.402       .  A
C1015      H1020   1.084       .  S
C1016      C1839   1.485       .  S
C1016      C1017   1.399       .  A
C1017      C1018   1.405       .  A
C1017      H1021   1.084       .  S
C1018      C1825   1.504       .  S
C1018      C1019   1.411       .  A
C1019      H1022   1.083       .  S
C1023      C1797   1.490       .  S
C1023      C1024   1.401       .  A
C1023      C1028   1.403       .  A
C1024      C1025   1.405       .  A
C1024      H1029   1.084       .  S
C1025      C1870   1.500       .  S
C1025      C1026   1.401       .  A
C1026      C1027   1.407       .  A
C1026      H1030   1.081       .  S
C1027      C1811   1.503       .  S
C1027      C1028   1.409       .  A
C1028      H1031   1.083       .  S
O1032     Ni1040   1.924       .  S
O1032      C1042   1.283       .  A
O1033     Ni1040   1.919       .  S
O1033      C1043   1.283       .  A
O1034     Ni1040   1.921       .  S
O1034      C1044   1.280       .  A
O1035     Ni1040   1.923       .  S
O1035      C1045   1.282       .  A
O1036     Ni1041   1.926       .  S
O1036      C1045   1.281       .  A
O1037     Ni1041   1.927       .  S
O1037      C1044   1.283       .  A
O1038     Ni1041   1.917       .  S
O1038      C1043   1.281       .  A
O1039     Ni1041   1.915       .  S
O1039      C1042   1.281       .  A
Ni1040    Ni1041   2.386       .  S
C1042      C1828   1.498       .  S
C1043      C3998   1.497       .  S
C1044      C3326   1.485       .  S
C1045      C1800   1.485       .  S
C1046      C1772   1.518       .  S
C1046      C1047   1.415       .  A
C1046      C1051   1.413       .  A
C1047      C1048   1.406       .  A
C1047      H1052   1.082       .  S
C1048      C1786   1.504       .  S
C1048      C1049   1.401       .  A
C1049      C1050   1.402       .  A
C1049      H1053   1.084       .  S
C1050      C1758   1.503   1_455  S
C1050      C1051   1.412       .  A
C1051      H1054   1.081       .  S
O1055     Ni1063   1.909       .  S
O1055      C1065   1.279       .  A
O1056     Ni1063   1.919       .  S
O1056      C1066   1.280       .  A
O1057     Ni1063   1.941       .  S
O1057      C1067   1.285       .  A
O1058     Ni1063   1.938       .  S
O1058      C1068   1.287       .  A
O1059     Ni1064   1.925       .  S
O1059      C1068   1.280       .  A
O1060     Ni1064   1.924       .  S
O1060      C1067   1.283       .  A
O1061     Ni1064   1.926       .  S
O1061      C1066   1.282       .  A
O1062     Ni1064   1.925       .  S
O1062      C1065   1.283       .  A
Ni1063    Ni1064   2.382       .  S
C1065      C1814   1.507       .  S
C1066      C1741   1.482       .  S
C1067      C1769   1.510       .  S
C1068      C3466   1.499       .  S
O1069     Ni1077   1.937       .  S
O1069      C1079   1.286       .  A
O1070     Ni1077   1.925       .  S
O1070      C1080   1.285       .  A
O1071     Ni1077   1.893       .  S
O1071      C1081   1.276       .  A
O1072     Ni1077   1.897       .  S
O1072      C1082   1.275       .  A
O1073     Ni1078   1.948       .  S
O1073      C1082   1.289       .  A
O1074     Ni1078   1.942       .  S
O1074      C1081   1.286       .  A
O1075     Ni1078   1.907       .  S
O1075      C1080   1.278       .  A
O1076     Ni1078   1.918       .  S
O1076      C1079   1.278       .  A
Ni1077    Ni1078   2.385       .  S
C1079      C1898   1.488       .  S
C1080      C2192   1.500       .  S
C1081      C3102   1.485       .  S
C1082      C1755   1.493       .  S
O1083     Ni1091   1.922       .  S
O1083      C1093   1.283       .  A
O1084     Ni1091   1.925       .  S
O1084      C1094   1.282       .  A
O1085     Ni1091   1.920       .  S
O1085      C1095   1.281       .  A
O1086     Ni1091   1.914       .  S
O1086      C1096   1.279       .  A
O1087     Ni1092   1.909       .  S
O1087      C1096   1.279       .  A
O1088     Ni1092   1.921       .  S
O1088      C1095   1.281       .  A
O1089     Ni1092   1.910       .  S
O1089      C1094   1.281       .  A
O1090     Ni1092   1.911       .  S
O1090      C1093   1.280       .  A
Ni1091    Ni1092   2.390       .  S
C1093      C1912   1.488       .  S
C1094      C3130   1.493       .  S
C1095      C1856   1.483       .  S
C1096      C2136   1.472       .  S
O1097     Ni1105   1.932       .  S
O1097      C1107   1.285       .  A
O1098     Ni1105   1.929       .  S
O1098      C1108   1.284       .  A
O1099     Ni1105   1.905       .  S
O1099      C1109   1.276       .  A
O1100     Ni1105   1.911       .  S
O1100      C1110   1.279       .  A
O1101     Ni1106   1.932       .  S
O1101      C1110   1.285       .  A
O1102     Ni1106   1.928       .  S
O1102      C1109   1.284       .  A
O1103     Ni1106   1.900       .  S
O1103      C1108   1.277       .  A
O1104     Ni1106   1.913       .  S
O1104      C1107   1.277       .  A
Ni1105    Ni1106   2.384       .  S
C1107      C1842   1.482       .  S
C1108      C3200   1.509       .  S
C1109      C3270   1.479       .  S
C1110      C1783   1.493       .  S
C1111      C1713   1.490       .  S
C1111      C1112   1.404       .  A
C1111      C1116   1.404       .  A
C1112      C1113   1.410       .  A
C1112      H1117   1.084       .  S
C1113      C1727   1.495       .  S
C1113      C1114   1.403       .  A
C1114      C1115   1.401       .  A
C1114      H1118   1.083       .  S
C1115      C1699   1.480       .  S
C1115      C1116   1.397       .  A
C1116      H1119   1.084       .  S
O1120     Ni1128   1.932       .  S
O1120      C1130   1.285       .  A
O1121     Ni1128   1.926       .  S
O1121      C1131   1.286       .  A
O1122     Ni1128   1.892       .  S
O1122      C1132   1.275       .  A
O1123     Ni1128   1.888       .  S
O1123      C1133   1.273       .  A
O1124     Ni1129   1.935       .  S
O1124      C1133   1.287       .  A
O1125     Ni1129   1.940       .  S
O1125      C1132   1.287       .  A
O1126     Ni1129   1.917       .  S
O1126      C1131   1.279       .  A
O1127     Ni1129   1.924       .  S
O1127      C1130   1.280       .  A
Ni1128    Ni1129   2.389       .  S
C1130      C1685   1.488       .  S
C1131      C3914   1.497       .  S
C1132      C1716   1.482       .  S
C1133      C3984   1.477       .  S
C1134      C1657   1.534       .  S
C1134      C1135   1.423       .  A
C1134      C1139   1.420       .  A
C1135      C1136   1.410       .  A
C1135      H1140   1.081       .  S
C1136      C1688   1.490       .  S
C1136      C1137   1.393       .  A
C1137      C1138   1.391       .  A
C1137      H1141   1.085       .  S
C1138      C1674   1.489       .  S
C1138      C1139   1.408       .  A
C1139      H1142   1.079       .  S
C1143      C1618   1.487       .  S
C1143      C1144   1.402       .  A
C1143      C1148   1.403       .  A
C1144      C1145   1.405       .  A
C1144      H1149   1.084       .  S
C1145      C1643   1.498   1_655  S
C1145      C1146   1.410       .  A
C1146      C1147   1.406       .  A
C1146      H1150   1.083       .  S
C1147      C1629   1.489       .  S
C1147      C1148   1.402       .  A
C1148      H1151   1.084       .  S
C1152      C1601   1.499   1_655  S
C1152      C1153   1.406       .  A
C1152      C1157   1.412       .  A
C1153      C1154   1.403       .  A
C1153      H1158   1.084       .  S
C1154      C1587   1.487       .  S
C1154      C1155   1.398       .  A
C1155      C1156   1.397       .  A
C1155      H1159   1.085       .  S
C1156      C1576   1.491       .  S
C1156      C1157   1.411       .  A
C1157      H1160   1.083       .  S
O1161     Ni1169   1.925       .  S
O1161      C1171   1.283       .  A
O1162     Ni1169   1.926       .  S
O1162      C1172   1.284       .  A
O1163     Ni1169   1.906       .  S
O1163      C1173   1.278       .  A
O1164     Ni1169   1.908       .  S
O1164      C1174   1.279       .  A
O1165     Ni1170   1.933       .  S
O1165      C1174   1.284       .  A
O1166     Ni1170   1.925       .  S
O1166      C1173   1.285       .  A
O1167     Ni1170   1.912       .  S
O1167      C1172   1.278       .  A
O1168     Ni1170   1.916       .  S
O1168      C1171   1.280       .  A
Ni1169    Ni1170   2.388       .  S
C1171      C1646   1.489       .  S
C1172      C3435   1.482       .  S
C1173      C3522   1.493       .  S
C1174      C1604   1.487       .  S
O1175     Ni1183   1.924       .  S
O1175      C1185   1.282       .  A
O1176     Ni1183   1.920       .  S
O1176      C1186   1.282       .  A
O1177     Ni1183   1.940       .  S
O1177      C1187   1.286       .  A
O1178     Ni1183   1.931       .  S
O1178      C1188   1.283       .  A
O1179     Ni1184   1.919       .  S
O1179      C1188   1.282       .  A
O1180     Ni1184   1.925       .  S
O1180      C1187   1.283       .  A
O1181     Ni1184   1.918       .  S
O1181      C1186   1.280       .  A
O1182     Ni1184   1.919       .  S
O1182      C1185   1.281       .  A
Ni1183    Ni1184   2.383       .  S
C1185      C1573   1.485       .  S
C1186      C2164   1.485       .  S
C1187      C1660   1.526       .  S
C1188      C1559   1.491       .  S
O1189     Ni1197   1.928       .  S
O1189      C1199   1.283       .  A
O1190     Ni1197   1.919       .  S
O1190      C1200   1.281       .  A
O1191     Ni1197   1.908       .  S
O1191      C1201   1.280       .  A
O1192     Ni1197   1.912       .  S
O1192      C1202   1.279       .  A
O1193     Ni1198   1.916       .  S
O1193      C1202   1.283       .  A
O1194     Ni1198   1.917       .  S
O1194      C1201   1.281       .  A
O1195     Ni1198   1.911       .  S
O1195      C1200   1.278       .  A
O1196     Ni1198   1.916       .  S
O1196      C1199   1.280       .  A
Ni1197    Ni1198   2.386       .  S
C1199      C1632   1.484       .  S
C1200      C2640   1.476       .  S
C1201      C1730   1.483       .  S
C1202      C3239   1.509       .  S
O1203     Ni1211   1.900       .  S
O1203      C1213   1.276       .  A
O1204     Ni1211   1.893       .  S
O1204      C1214   1.275       .  A
O1205     Ni1211   1.917       .  S
O1205      C1215   1.284       .  A
O1206     Ni1211   1.929       .  S
O1206      C1216   1.284       .  A
O1207     Ni1212   1.904       .  S
O1207      C1216   1.277       .  A
O1208     Ni1212   1.898       .  S
O1208      C1215   1.275       .  A
O1209     Ni1212   1.943       .  S
O1209      C1214   1.288       .  A
O1210     Ni1212   1.938       .  S
O1210      C1213   1.287       .  A
Ni1211    Ni1212   2.386       .  S
C1213      C1671   1.484       .  S
C1214      C2990   1.505       .  S
C1215      C3046   1.485       .  S
C1216      C1615   1.478       .  S
O1217     Ni1225   1.913       .  S
O1217      C1227   1.280       .  A
O1218     Ni1225   1.906       .  S
O1218      C1228   1.280       .  A
O1219     Ni1225   1.913       .  S
O1219      C1229   1.280       .  A
O1220     Ni1225   1.914       .  S
O1220      C1230   1.279       .  A
O1221     Ni1226   1.913       .  S
O1221      C1230   1.280       .  A
O1222     Ni1226   1.915       .  S
O1222      C1229   1.281       .  A
O1223     Ni1226   1.907       .  S
O1223      C1228   1.278       .  A
O1224     Ni1226   1.907       .  S
O1224      C1227   1.279       .  A
Ni1225    Ni1226   2.386       .  S
C1227      C1590   1.476       .  S
C1228      C2693   1.504       .  S
C1229      C2150   1.482       .  S
C1230      C1702   1.475       .  S
O1231     Ni1237   1.919   1_455  S
O1231      C1252   1.269       .  A
O1232     Ni1255   1.905       .  S
O1232      C1241   1.271       .  A
O1233     Ni1237   1.900       .  S
O1233     Ni1255   1.903       .  S
O1233     Ni1249   1.930   1_655  S
O1233      H1256   0.966       .  S
C1234      O1251   1.278       .  A
C1234      O1243   1.271       .  A
C1234      C1545   1.517       .  S
O1235     Ni1254   1.911   1_655  S
O1235      C1241   1.268       .  A
O1236     Ni1254   1.891   1_655  S
O1236      C1238   1.268       .  A
Ni1237     O1240   1.930       .  S
Ni1237     O1242   1.890   1_655  S
C1238      O1248   1.278       .  A
C1238      C3564   1.486       .  S
O1239     Ni1255   1.928       .  S
O1239      C1245   1.275       .  A
O1240      C1245   1.275       .  A
C1241      C1926   1.505       .  S
O1242      C1244   1.268       .  A
O1243     Ni1254   1.914       .  S
C1244      O1250   1.278       .  A
C1244      C1744   1.506       .  S
C1245      C1562   1.497       .  S
H1246      O1247   0.966       .  S
O1247     Ni1255   1.926   1_455  S
O1247     Ni1249   1.908       .  S
O1247     Ni1254   1.895       .  S
O1248     Ni1249   1.951   1_655  S
Ni1249     O1253   1.907       .  S
Ni1249     O1251   1.940       .  S
O1250     Ni1255   1.942   1_455  S
C1252      O1253   1.270       .  A
C1252      C2388   1.481       .  S
C1257      C1503   1.496       .  S
C1257      C1258   1.411       .  A
C1257      C1262   1.402       .  A
C1258      C1259   1.407       .  A
C1258      H1263   1.083       .  S
C1259      C1531   1.480       .  S
C1259      C1260   1.396       .  A
C1260      C1261   1.395       .  A
C1260      H1264   1.084       .  S
C1261      C1517   1.476   1_554  S
C1261      C1262   1.394       .  A
C1262      H1265   1.084       .  S
O1266     Ni1274   1.920       .  S
O1266      C1276   1.282       .  A
O1267     Ni1274   1.922       .  S
O1267      C1277   1.283       .  A
O1268     Ni1274   1.925       .  S
O1268      C1278   1.282       .  A
O1269     Ni1274   1.923       .  S
O1269      C1279   1.281       .  A
O1270     Ni1275   1.932       .  S
O1270      C1279   1.284       .  A
O1271     Ni1275   1.936       .  S
O1271      C1278   1.285       .  A
O1272     Ni1275   1.909       .  S
O1272      C1277   1.278       .  A
O1273     Ni1275   1.907       .  S
O1273      C1276   1.279       .  A
Ni1274    Ni1275   2.388       .  S
C1276      C1506   1.485       .  S
C1277      C3477   1.485       .  S
C1278      C1492   1.496       .  S
C1279      C3186   1.488       .  S
C1280      C1447   1.478       .  S
C1280      C1281   1.403       .  A
C1280      C1285   1.394       .  A
C1281      C1282   1.406       .  A
C1281      H1286   1.083       .  S
C1282      C1478   1.488   1_545  S
C1282      C1283   1.405       .  A
C1283      C1284   1.404       .  A
C1283      H1287   1.084       .  S
C1284      C1464   1.489       .  S
C1284      C1285   1.398       .  A
C1285      H1288   1.084       .  S
C1289      C1436   1.509       .  S
C1289      C1290   1.412       .  A
C1289      C1294   1.407       .  A
C1290      C1291   1.411       .  A
C1290      H1295   1.083       .  S
C1291      C1489   1.504       .  S
C1291      C1292   1.407       .  A
C1292      C1293   1.409       .  A
C1292      H1296   1.084       .  S
C1293      C1422   1.506       .  S
C1293      C1294   1.405       .  A
C1294      H1297   1.083       .  S
O1298     Ni1306   1.942       .  S
O1298      C1308   1.287       .  A
O1299     Ni1306   1.939       .  S
O1299      C1309   1.287       .  A
O1300     Ni1306   1.900       .  S
O1300      C1310   1.275       .  A
O1301     Ni1306   1.900       .  S
O1301      C1311   1.276       .  A
O1302     Ni1307   1.927       .  S
O1302      C1311   1.282       .  A
O1303     Ni1307   1.934       .  S
O1303      C1310   1.285       .  A
O1304     Ni1307   1.907       .  S
O1304      C1309   1.278       .  A
O1305     Ni1307   1.910       .  S
O1305      C1308   1.279       .  A
Ni1306    Ni1307   2.387       .  S
C1308      C1419   1.504       .  S
C1309      C2108   1.504       .  S
C1310      C1450   1.476       .  S
C1311      C3393   1.472       .  S
C1312      C1380   1.508       .  S
C1312      C1313   1.411       .  A
C1312      C1317   1.402       .  A
C1313      C1314   1.416       .  A
C1313      H1318   1.080       .  S
C1314      C1405   1.526   1_554  S
C1314      C1315   1.418       .  A
C1315      C1316   1.410       .  A
C1315      H1319   1.082       .  S
C1316      C1394   1.502   1_545  S
C1316      C1317   1.400       .  A
C1317      H1320   1.084   1_545  S
O1321     Ni1329   1.912       .  S
O1321      C1331   1.280       .  A
O1322     Ni1329   1.904       .  S
O1322      C1332   1.279       .  A
O1323     Ni1329   1.916       .  S
O1323      C1333   1.281       .  A
O1324     Ni1329   1.930       .  S
O1324      C1334   1.283       .  A
O1325     Ni1330   1.941       .  S
O1325      C1334   1.286       .  A
O1326     Ni1330   1.935       .  S
O1326      C1333   1.285       .  A
O1327     Ni1330   1.932       .  S
O1327      C1332   1.284       .  A
O1328     Ni1330   1.936       .  S
O1328      C1331   1.285       .  A
Ni1329    Ni1330   2.378       .  S
C1331      C1377   1.499       .  S
C1332      C3900   1.508       .  S
C1333      C2906   1.506       .  S
C1334      C1433   1.506       .  S
O1335     Ni1343   1.903       .  S
O1335      C1345   1.278       .  A
O1336     Ni1343   1.907       .  S
O1336      C1346   1.278       .  A
O1337     Ni1343   1.923       .  S
O1337      C1347   1.282       .  A
O1338     Ni1343   1.915       .  S
O1338      C1348   1.281       .  A
O1339     Ni1344   1.936       .  S
O1339      C1348   1.285       .  A
O1340     Ni1344   1.942       .  S
O1340      C1347   1.287       .  A
O1341     Ni1344   1.917       .  S
O1341      C1346   1.280       .  A
O1342     Ni1344   1.914       .  S
O1342      C1345   1.280       .  A
Ni1343    Ni1344   2.388       .  S
C1345      C1520   1.471       .  S
C1346      C3116   1.470       .  S
C1347      C1408   1.515       .  S
C1348      C1548   1.497       .  S
O1349     Ni1357   1.900       .  S
O1349      C1359   1.276       .  A
O1350     Ni1357   1.902       .  S
O1350      C1360   1.278       .  A
O1351     Ni1357   1.942       .  S
O1351      C1361   1.287       .  A
O1352     Ni1357   1.947       .  S
O1352      C1362   1.288       .  A
O1353     Ni1358   1.904       .  S
O1353      C1362   1.277       .  A
O1354     Ni1358   1.911       .  S
O1354      C1361   1.278       .  A
O1355     Ni1358   1.930       .  S
O1355      C1360   1.285       .  A
O1356     Ni1358   1.932       .  S
O1356      C1359   1.285       .  A
Ni1357    Ni1358   2.381       .  S
C1359      C1475   1.481       .  S
C1360      C3256   1.502       .  S
C1361      C1391   1.492       .  S
C1362      C2973   1.516       .  S
O1363     Ni1371   1.913       .  S
O1363      C1373   1.280       .  A
O1364     Ni1371   1.910       .  S
O1364      C1374   1.280       .  A
O1365     Ni1371   1.920       .  S
O1365      C1375   1.281       .  A
O1366     Ni1371   1.918       .  S
O1366      C1376   1.281       .  A
O1367     Ni1372   1.921       .  S
O1367      C1376   1.280       .  A
O1368     Ni1372   1.910       .  S
O1368      C1375   1.281       .  A
O1369     Ni1372   1.901       .  S
O1369      C1374   1.279       .  A
O1370     Ni1372   1.902       .  S
O1370      C1373   1.278       .  A
Ni1371    Ni1372   2.382       .  S
C1373      C1461   1.477       .  S
C1374      C2581   1.488       .  S
C1375      C2654   1.514       .  S
C1376      C1534   1.478       .  S
C1377      C1378   1.410       .  A
C1377      C1382   1.417       .  A
C1378      C1379   1.411       .  A
C1378      C1383   1.448       .  S
C1379      C1380   1.422       .  A
C1379      C1386   1.452       .  S
C1380      C1381   1.417       .  A
C1381      C1382   1.416       .  A
C1381      C1384   1.450       .  S
C1382      C1385   1.451       .  S
C1383      N1390   1.157       .  T
C1384      N1389   1.157       .  T
C1385      N1387   1.157       .  T
C1386      N1388   1.158       .  T
C1391      C1392   1.416       .  A
C1391      C1396   1.411       .  A
C1392      C1393   1.414       .  A
C1392      C1397   1.451       .  S
C1393      C1394   1.414       .  A
C1393      C1400   1.451   1_565  S
C1394      C1395   1.419       .  A
C1395      C1396   1.416       .  A
C1395      C1398   1.451       .  S
C1396      C1399   1.451       .  S
C1397      N1404   1.157       .  T
C1398      N1403   1.157       .  T
C1399      N1401   1.157       .  T
C1400      N1402   1.157       .  T
C1405      C1406   1.424       .  A
C1405      C1410   1.423       .  A
C1406      C1407   1.418       .  A
C1406      C1411   1.451   1_556  S
C1407      C1408   1.416       .  A
C1407      C1414   1.449       .  S
C1408      C1409   1.420       .  A
C1409      C1410   1.419       .  A
C1409      C1412   1.452       .  S
C1410      C1413   1.452       .  S
C1411      N1418   1.158       .  T
C1412      N1417   1.158       .  T
C1413      N1415   1.157   1_545  T
C1414      N1416   1.158       .  T
C1419      C1420   1.416       .  A
C1419      C1424   1.421       .  A
C1420      C1421   1.417       .  A
C1420      C1425   1.451       .  S
C1421      C1422   1.418       .  A
C1421      C1428   1.451       .  S
C1422      C1423   1.416       .  A
C1423      C1424   1.414       .  A
C1423      C1426   1.453       .  S
C1424      C1427   1.453       .  S
C1425      N1432   1.157       .  T
C1426      N1431   1.158       .  T
C1427      N1429   1.158       .  T
C1428      N1430   1.157       .  T
C1433      C1434   1.417       .  A
C1433      C1438   1.414       .  A
C1434      C1435   1.418       .  A
C1434      C1439   1.446       .  S
C1435      C1436   1.416       .  A
C1435      C1442   1.452       .  S
C1436      C1437   1.418       .  A
C1437      C1438   1.416       .  A
C1437      C1440   1.453       .  S
C1438      C1441   1.444       .  S
C1439      N1446   1.155       .  T
C1440      N1445   1.157       .  T
C1441      N1443   1.155       .  T
C1442      N1444   1.157       .  T
C1447      C1448   1.409       .  A
C1447      C1452   1.411       .  A
C1448      C1449   1.410       .  A
C1448      C1453   1.451       .  S
C1449      C1450   1.412       .  A
C1449      C1456   1.448       .  S
C1450      C1451   1.410       .  A
C1451      C1452   1.407       .  A
C1451      C1454   1.450       .  S
C1452      C1455   1.451       .  S
C1453      N1460   1.157       .  T
C1454      N1459   1.157       .  T
C1455      N1457   1.157       .  T
C1456      N1458   1.156       .  T
C1461      C1462   1.413       .  A
C1461      C1466   1.410       .  A
C1462      C1463   1.408       .  A
C1462      C1467   1.454       .  S
C1463      C1464   1.414   1_655  A
C1463      C1470   1.450       .  S
C1464      C1465   1.418       .  A
C1465      C1466   1.406   1_455  A
C1465      C1468   1.452       .  S
C1466      C1469   1.452       .  S
C1467      N1474   1.158       .  T
C1468      N1473   1.157       .  T
C1469      N1471   1.157       .  T
C1470      N1472   1.157   1_545  T
C1475      C1476   1.415       .  A
C1475      C1480   1.409       .  A
C1476      C1477   1.409       .  A
C1476      C1481   1.453       .  S
C1477      C1478   1.412       .  A
C1477      C1484   1.450   1_565  S
C1478      C1479   1.414       .  A
C1479      C1480   1.411       .  A
C1479      C1482   1.450       .  S
C1480      C1483   1.450       .  S
C1481      N1488   1.157       .  T
C1482      N1487   1.157       .  T
C1483      N1485   1.157       .  T
C1484      N1486   1.157       .  T
C1489      C1490   1.417       .  A
C1489      C1494   1.415       .  A
C1490      C1491   1.418       .  A
C1490      C1495   1.450       .  S
C1491      C1492   1.413       .  A
C1491      C1498   1.450       .  S
C1492      C1493   1.415       .  A
C1493      C1494   1.416       .  A
C1493      C1496   1.451       .  S
C1494      C1497   1.451       .  S
C1495      N1502   1.157       .  T
C1496      N1501   1.157       .  T
C1497      N1499   1.157       .  T
C1498      N1500   1.157       .  T
C1503      C1504   1.417       .  A
C1503      C1508   1.418       .  A
C1504      C1505   1.410       .  A
C1504      C1509   1.451       .  S
C1505      C1506   1.415       .  A
C1505      C1512   1.453       .  S
C1506      C1507   1.412       .  A
C1507      C1508   1.409       .  A
C1507      C1510   1.452       .  S
C1508      C1511   1.452       .  S
C1509      N1516   1.157       .  T
C1510      N1515   1.158       .  T
C1511      N1513   1.157   1_554  T
C1512      N1514   1.157       .  T
C1517      C1518   1.410       .  A
C1517      C1522   1.412       .  A
C1518      C1519   1.405       .  A
C1518      C1523   1.452       .  S
C1519      C1520   1.413       .  A
C1519      C1526   1.452       .  S
C1520      C1521   1.409       .  A
C1521      C1522   1.405       .  A
C1521      C1524   1.446       .  S
C1522      C1525   1.453   1_556  S
C1523      N1530   1.157       .  T
C1524      N1529   1.155       .  T
C1525      N1527   1.157       .  T
C1526      N1528   1.157       .  T
C1531      C1532   1.410   1_455  A
C1531      C1536   1.412       .  A
C1532      C1533   1.412       .  A
C1532      C1537   1.450       .  S
C1533      C1534   1.412       .  A
C1533      C1540   1.449       .  S
C1534      C1535   1.409       .  A
C1535      C1536   1.408   1_655  A
C1535      C1538   1.449   1_655  S
C1536      C1539   1.452       .  S
C1537      N1544   1.157       .  T
C1538      N1543   1.157       .  T
C1539      N1541   1.157       .  T
C1540      N1542   1.157       .  T
C1545      C1546   1.426       .  A
C1545      C1550   1.423       .  A
C1546      C1547   1.409       .  A
C1546      C1551   1.454       .  S
C1547      C1548   1.411       .  A
C1547      C1554   1.454       .  S
C1548      C1549   1.415       .  A
C1549      C1550   1.423       .  A
C1549      C1552   1.451       .  S
C1550      C1553   1.448       .  S
C1551      N1558   1.158       .  T
C1552      N1557   1.157       .  T
C1553      N1555   1.157       .  T
C1554      N1556   1.158       .  T
C1559      C1560   1.410       .  A
C1559      C1564   1.415       .  A
C1560      C1561   1.410       .  A
C1560      C1565   1.453       .  S
C1561      C1562   1.418       .  A
C1561      C1568   1.450       .  S
C1562      C1563   1.415       .  A
C1563      C1564   1.420       .  A
C1563      C1566   1.449       .  S
C1564      C1567   1.450       .  S
C1565      N1572   1.157       .  T
C1566      N1571   1.157       .  T
C1567      N1569   1.157       .  T
C1568      N1570   1.157       .  T
C1573      C1574   1.412       .  A
C1573      C1578   1.411       .  A
C1574      C1575   1.415       .  A
C1574      C1579   1.450       .  S
C1575      C1576   1.416       .  A
C1575      C1582   1.450       .  S
C1576      C1577   1.410       .  A
C1577      C1578   1.408       .  A
C1577      C1580   1.449       .  S
C1578      C1581   1.447       .  S
C1579      N1586   1.157       .  T
C1580      N1585   1.156       .  T
C1581      N1583   1.155       .  T
C1582      N1584   1.157       .  T
C1587      C1588   1.417       .  A
C1587      C1592   1.413       .  A
C1588      C1589   1.408       .  A
C1588      C1593   1.452       .  S
C1589      C1590   1.411       .  A
C1589      C1596   1.452       .  S
C1590      C1591   1.411       .  A
C1591      C1592   1.408       .  A
C1591      C1594   1.453       .  S
C1592      C1595   1.449       .  S
C1593      N1600   1.157       .  T
C1594      N1599   1.157       .  T
C1595      N1597   1.156       .  T
C1596      N1598   1.157       .  T
C1601      C1602   1.417       .  A
C1601      C1606   1.414       .  A
C1602      C1603   1.415       .  A
C1602      C1607   1.449       .  S
C1603      C1604   1.410       .  A
C1603      C1610   1.451       .  S
C1604      C1605   1.413       .  A
C1605      C1606   1.412       .  A
C1605      C1608   1.453       .  S
C1606      C1609   1.447   1_455  S
C1607      N1614   1.157       .  T
C1608      N1613   1.157       .  T
C1609      N1611   1.156       .  T
C1610      N1612   1.157       .  T
C1615      C1616   1.410       .  A
C1615      C1620   1.412       .  A
C1616      C1617   1.412       .  A
C1616      C1621   1.450       .  S
C1617      C1618   1.413       .  A
C1617      C1624   1.450       .  S
C1618      C1619   1.412       .  A
C1619      C1620   1.408       .  A
C1619      C1622   1.450       .  S
C1620      C1623   1.452       .  S
C1621      N1628   1.157       .  T
C1622      N1627   1.157       .  T
C1623      N1625   1.157       .  T
C1624      N1626   1.157   1_655  T
C1629      C1630   1.413       .  A
C1629      C1634   1.412       .  A
C1630      C1631   1.415       .  A
C1630      C1635   1.449       .  S
C1631      C1632   1.412       .  A
C1631      C1638   1.450       .  S
C1632      C1633   1.411       .  A
C1633      C1634   1.410       .  A
C1633      C1636   1.450       .  S
C1634      C1637   1.450       .  S
C1635      N1642   1.157       .  T
C1636      N1641   1.157       .  T
C1637      N1639   1.157       .  T
C1638      N1640   1.157       .  T
C1643      C1644   1.417       .  A
C1643      C1648   1.416       .  A
C1644      C1645   1.414       .  A
C1644      C1649   1.450       .  S
C1645      C1646   1.412       .  A
C1645      C1652   1.452       .  S
C1646      C1647   1.415       .  A
C1647      C1648   1.412       .  A
C1647      C1650   1.452       .  S
C1648      C1651   1.452   1_455  S
C1649      N1656   1.157       .  T
C1650      N1655   1.157       .  T
C1651      N1653   1.157       .  T
C1652      N1654   1.157       .  T
C1657      C1658   1.424       .  A
C1657      C1662   1.426       .  A
C1658      C1659   1.421       .  A
C1658      C1663   1.452       .  S
C1659      C1660   1.423       .  A
C1659      C1666   1.450       .  S
C1660      C1661   1.423       .  A
C1661      C1662   1.419       .  A
C1661      C1664   1.454       .  S
C1662      C1665   1.451       .  S
C1663      N1670   1.157       .  T
C1664      N1669   1.158       .  T
C1665      N1667   1.157       .  T
C1666      N1668   1.158       .  T
C1671      C1672   1.413       .  A
C1671      C1676   1.414       .  A
C1672      C1673   1.407       .  A
C1672      C1677   1.452       .  S
C1673      C1674   1.413       .  A
C1673      C1680   1.452       .  S
C1674      C1675   1.413       .  A
C1675      C1676   1.416       .  A
C1675      C1678   1.450       .  S
C1676      C1679   1.451       .  S
C1677      N1684   1.157       .  T
C1678      N1683   1.157       .  T
C1679      N1681   1.157       .  T
C1680      N1682   1.157       .  T
C1685      C1686   1.411       .  A
C1685      C1690   1.410       .  A
C1686      C1687   1.413       .  A
C1686      C1691   1.450       .  S
C1687      C1688   1.414       .  A
C1687      C1694   1.451       .  S
C1688      C1689   1.413       .  A
C1689      C1690   1.413       .  A
C1689      C1692   1.451       .  S
C1690      C1693   1.447       .  S
C1691      N1698   1.157       .  T
C1692      N1697   1.157       .  T
C1693      N1695   1.157       .  T
C1694      N1696   1.157       .  T
C1699      C1700   1.410       .  A
C1699      C1704   1.411       .  A
C1700      C1701   1.412       .  A
C1700      C1705   1.450       .  S
C1701      C1702   1.413       .  A
C1701      C1708   1.451       .  S
C1702      C1703   1.410       .  A
C1703      C1704   1.405       .  A
C1703      C1706   1.452       .  S
C1704      C1707   1.451       .  S
C1705      N1712   1.157       .  T
C1706      N1711   1.157       .  T
C1707      N1709   1.157       .  T
C1708      N1710   1.157       .  T
C1713      C1714   1.415       .  A
C1713      C1718   1.412       .  A
C1714      C1715   1.414       .  A
C1714      C1719   1.449       .  S
C1715      C1716   1.410       .  A
C1715      C1722   1.449       .  S
C1716      C1717   1.416       .  A
C1717      C1718   1.405       .  A
C1717      C1720   1.452       .  S
C1718      C1721   1.452       .  S
C1719      N1726   1.157       .  T
C1720      N1725   1.157       .  T
C1721      N1723   1.157       .  T
C1722      N1724   1.156       .  T
C1727      C1728   1.420       .  A
C1727      C1732   1.413       .  A
C1728      C1729   1.411       .  A
C1728      C1733   1.449       .  S
C1729      C1730   1.411       .  A
C1729      C1736   1.453       .  S
C1730      C1731   1.413       .  A
C1731      C1732   1.408       .  A
C1731      C1734   1.453       .  S
C1732      C1735   1.450       .  S
C1733      N1740   1.157       .  T
C1734      N1739   1.157       .  T
C1735      N1737   1.157       .  T
C1736      N1738   1.157       .  T
C1741      C1742   1.405       .  A
C1741      C1746   1.412       .  A
C1742      C1743   1.401       .  A
C1742      C1747   1.449       .  S
C1743      C1744   1.422       .  A
C1743      C1750   1.455       .  S
C1744      C1745   1.421       .  A
C1745      C1746   1.420       .  A
C1745      C1748   1.449       .  S
C1746      C1749   1.448       .  S
C1747      N1754   1.156       .  T
C1748      N1753   1.157       .  T
C1749      N1751   1.157       .  T
C1750      N1752   1.158   1_455  T
C1755      C1756   1.418       .  A
C1755      C1760   1.411       .  A
C1756      C1757   1.411       .  A
C1756      C1761   1.453       .  S
C1757      C1758   1.416       .  A
C1757      C1764   1.452   1_655  S
C1758      C1759   1.419       .  A
C1759      C1760   1.415       .  A
C1759      C1762   1.451       .  S
C1760      C1763   1.449       .  S
C1761      N1768   1.158       .  T
C1762      N1767   1.157       .  T
C1763      N1765   1.157       .  T
C1764      N1766   1.157       .  T
C1769      C1770   1.418       .  A
C1769      C1774   1.417       .  A
C1770      C1771   1.423       .  A
C1770      C1775   1.451       .  S
C1771      C1772   1.423       .  A
C1771      C1778   1.450       .  S
C1772      C1773   1.418       .  A
C1773      C1774   1.412       .  A
C1773      C1776   1.454       .  S
C1774      C1777   1.448       .  S
C1775      N1782   1.157       .  T
C1776      N1781   1.158       .  T
C1777      N1779   1.156       .  T
C1778      N1780   1.158   1_455  T
C1783      C1784   1.415       .  A
C1783      C1788   1.414       .  A
C1784      C1785   1.417       .  A
C1784      C1789   1.451       .  S
C1785      C1786   1.417       .  A
C1785      C1792   1.450       .  S
C1786      C1787   1.420       .  A
C1787      C1788   1.409       .  A
C1787      C1790   1.453       .  S
C1788      C1791   1.453       .  S
C1789      N1796   1.157       .  T
C1790      N1795   1.158       .  T
C1791      N1793   1.158       .  T
C1792      N1794   1.157       .  T
C1797      C1798   1.413       .  A
C1797      C1802   1.412       .  A
C1798      C1799   1.414       .  A
C1798      C1803   1.450       .  S
C1799      C1800   1.411       .  A
C1799      C1806   1.448       .  S
C1800      C1801   1.412       .  A
C1801      C1802   1.410       .  A
C1801      C1804   1.449       .  S
C1802      C1805   1.452       .  S
C1803      N1810   1.157       .  T
C1804      N1809   1.157       .  T
C1805      N1807   1.157       .  T
C1806      N1808   1.157       .  T
C1811      C1812   1.417       .  A
C1811      C1816   1.415       .  A
C1812      C1813   1.412       .  A
C1812      C1817   1.452       .  S
C1813      C1814   1.422       .  A
C1813      C1820   1.450       .  S
C1814      C1815   1.424       .  A
C1815      C1816   1.409       .  A
C1815      C1818   1.452       .  S
C1816      C1819   1.453       .  S
C1817      N1824   1.158       .  T
C1818      N1823   1.158       .  T
C1819      N1821   1.157       .  T
C1820      N1822   1.157       .  T
C1825      C1826   1.416       .  A
C1825      C1830   1.420       .  A
C1826      C1827   1.414       .  A
C1826      C1831   1.450       .  S
C1827      C1828   1.418       .  A
C1827      C1834   1.452       .  S
C1828      C1829   1.417       .  A
C1829      C1830   1.412       .  A
C1829      C1832   1.453       .  S
C1830      C1833   1.453       .  S
C1831      N1838   1.157       .  T
C1832      N1837   1.158       .  T
C1833      N1835   1.158       .  T
C1834      N1836   1.158       .  T
C1839      C1840   1.411       .  A
C1839      C1844   1.413       .  A
C1840      C1841   1.411       .  A
C1840      C1845   1.450       .  S
C1841      C1842   1.412       .  A
C1841      C1848   1.449       .  S
C1842      C1843   1.409       .  A
C1843      C1844   1.410       .  A
C1843      C1846   1.448       .  S
C1844      C1847   1.451       .  S
C1845      N1852   1.157       .  T
C1846      N1851   1.157       .  T
C1847      N1849   1.157       .  T
C1848      N1850   1.157       .  T
C1853      C1854   1.415       .  A
C1853      C1858   1.413       .  A
C1854      C1855   1.413       .  A
C1854      C1859   1.450       .  S
C1855      C1856   1.410       .  A
C1855      C1862   1.451       .  S
C1856      C1857   1.412       .  A
C1857      C1858   1.412       .  A
C1857      C1860   1.451       .  S
C1858      C1861   1.449       .  S
C1859      N1866   1.157       .  T
C1860      N1865   1.157       .  T
C1861      N1863   1.157       .  T
C1862      N1864   1.157       .  T
C1867      C1868   1.417       .  A
C1867      C1872   1.419       .  A
C1868      C1869   1.415       .  A
C1868      C1873   1.452       .  S
C1869      C1870   1.419       .  A
C1869      C1876   1.451       .  S
C1870      C1871   1.414       .  A
C1871      C1872   1.405       .  A
C1871      C1874   1.454       .  S
C1872      C1875   1.449       .  S
C1873      N1880   1.157       .  T
C1874      N1879   1.158       .  T
C1875      N1877   1.157       .  T
C1876      N1878   1.157       .  T
C1881      C1882   1.411       .  A
C1881      C1886   1.411       .  A
C1882      C1883   1.407       .  A
C1882      C1887   1.451       .  S
C1883      C1884   1.411       .  A
C1883      C1890   1.450       .  S
C1884      C1885   1.413       .  A
C1885      C1886   1.414       .  A
C1885      C1888   1.450       .  S
C1886      C1889   1.449       .  S
C1887      N1894   1.157       .  T
C1888      N1893   1.157       .  T
C1889      N1891   1.157       .  T
C1890      N1892   1.157       .  T
C1895      C1896   1.411       .  A
C1895      C1900   1.411       .  A
C1896      C1897   1.413       .  A
C1896      C1901   1.450       .  S
C1897      C1898   1.411       .  A
C1897      C1904   1.448       .  S
C1898      C1899   1.411       .  A
C1899      C1900   1.412       .  A
C1899      C1902   1.448       .  S
C1900      C1903   1.450   1_655  S
C1901      N1908   1.157       .  T
C1902      N1907   1.157       .  T
C1903      N1905   1.157       .  T
C1904      N1906   1.157       .  T
C1909      C1910   1.416       .  A
C1909      C1914   1.419       .  A
C1910      C1911   1.413       .  A
C1910      C1915   1.451       .  S
C1911      C1912   1.415       .  A
C1911      C1918   1.452       .  S
C1912      C1913   1.412       .  A
C1913      C1914   1.410       .  A
C1913      C1916   1.454       .  S
C1914      C1917   1.450       .  S
C1915      N1922   1.157       .  T
C1916      N1921   1.157       .  T
C1917      N1919   1.156       .  T
C1918      N1920   1.157       .  T
C1923      C1924   1.423       .  A
C1923      C1928   1.425       .  A
C1924      C1925   1.409       .  A
C1924      C1929   1.456       .  S
C1925      C1926   1.426       .  A
C1925      C1932   1.457       .  S
C1926      C1927   1.414       .  A
C1927      C1928   1.417       .  A
C1927      C1930   1.451       .  S
C1928      C1931   1.451       .  S
C1929      N1936   1.158       .  T
C1930      N1935   1.157       .  T
C1931      N1933   1.158       .  T
C1932      N1934   1.158       .  T
C1937      C1938   1.405       .  A
C1937      C1942   1.409       .  A
C1938      C1939   1.405       .  A
C1938      C1943   1.450       .  S
C1939      C1940   1.413       .  A
C1939      C1946   1.450       .  S
C1940      C1941   1.408       .  A
C1941      C1942   1.401       .  A
C1941      C1944   1.449       .  S
C1942      C1945   1.453       .  S
C1943      N1950   1.157       .  T
C1944      N1949   1.156       .  T
C1945      N1947   1.157       .  T
C1946      N1948   1.157       .  T
C1951      C1952   1.419       .  A
C1951      C1956   1.416       .  A
C1952      C1953   1.407       .  A
C1952      C1957   1.450       .  S
C1953      C1954   1.415       .  A
C1953      C1960   1.452       .  S
C1954      C1955   1.420       .  A
C1955      C1956   1.408       .  A
C1955      C1958   1.453       .  S
C1956      C1959   1.453       .  S
C1957      N1964   1.157       .  T
C1958      N1963   1.157       .  T
C1959      N1961   1.158       .  T
C1960      N1962   1.158       .  T
C1965      C1966   1.426       .  A
C1965      C1970   1.417       .  A
C1966      C1967   1.404       .  A
C1966      C1971   1.451       .  S
C1967      C1968   1.409       .  A
C1967      C1974   1.457       .  S
C1968      C1969   1.414       .  A
C1969      C1970   1.413       .  A
C1969      C1972   1.451       .  S
C1970      C1973   1.452       .  S
C1971      N1978   1.157       .  T
C1972      N1977   1.157       .  T
C1973      N1975   1.157       .  T
C1974      N1976   1.158       .  T
C1979      C1980   1.412       .  A
C1979      C1984   1.416       .  A
C1980      C1981   1.413       .  A
C1980      C1985   1.452       .  S
C1981      C1982   1.422       .  A
C1981      C1988   1.453       .  S
C1982      C1983   1.412       .  A
C1983      C1984   1.415       .  A
C1983      C1986   1.451       .  S
C1984      C1987   1.448       .  S
C1985      N1992   1.157       .  T
C1986      N1991   1.157       .  T
C1987      N1989   1.157       .  T
C1988      N1990   1.158       .  T
C1993      C1994   1.412       .  A
C1993      C1998   1.414       .  A
C1994      C1995   1.412       .  A
C1994      C1999   1.451       .  S
C1995      C1996   1.413       .  A
C1995      C2002   1.445       .  S
C1996      C1997   1.419       .  A
C1997      C1998   1.420       .  A
C1997      C2000   1.450       .  S
C1998      C2001   1.449       .  S
C1999      N2006   1.157       .  T
C2000      N2005   1.157       .  T
C2001      N2003   1.157       .  T
C2002      N2004   1.155       .  T
C2007      C2008   1.425       .  A
C2007      C2012   1.421       .  A
C2008      C2009   1.416       .  A
C2008      C2013   1.448       .  S
C2009      C2010   1.416       .  A
C2009      C2016   1.454       .  S
C2010      C2011   1.413       .  A
C2011      C2012   1.413       .  A
C2011      C2014   1.454       .  S
C2012      C2015   1.449       .  S
C2013      N2020   1.157       .  T
C2014      N2019   1.158       .  T
C2015      N2017   1.156       .  T
C2016      N2018   1.158       .  T
C2021      C2022   1.417       .  A
C2021      C2026   1.416       .  A
C2022      C2023   1.410       .  A
C2022      C2027   1.452       .  S
C2023      C2024   1.420       .  A
C2023      C2030   1.453       .  S
C2024      C2025   1.419       .  A
C2025      C2026   1.417       .  A
C2025      C2028   1.451       .  S
C2026      C2029   1.451       .  S
C2027      N2034   1.158       .  T
C2028      N2033   1.157       .  T
C2029      N2031   1.157       .  T
C2030      N2032   1.158       .  T
C2035      C2036   1.413       .  A
C2035      C2040   1.415       .  A
C2036      C2037   1.414   1_565  A
C2036      C2041   1.446       .  S
C2037      C2038   1.415       .  A
C2037      C2044   1.452       .  S
C2038      C2039   1.416   1_545  A
C2039      C2040   1.412       .  A
C2039      C2042   1.452       .  S
C2040      C2043   1.453       .  S
C2041      N2048   1.156       .  T
C2042      N2047   1.157       .  T
C2043      N2045   1.157       .  T
C2044      N2046   1.157       .  T
C2049      C2050   1.415       .  A
C2049      C2054   1.412       .  A
C2050      C2051   1.412       .  A
C2050      C2055   1.451       .  S
C2051      C2052   1.411       .  A
C2051      C2058   1.450       .  S
C2052      C2053   1.413       .  A
C2053      C2054   1.413       .  A
C2053      C2056   1.449       .  S
C2054      C2057   1.451       .  S
C2055      N2062   1.157       .  T
C2056      N2061   1.157       .  T
C2057      N2059   1.157       .  T
C2058      N2060   1.157       .  T
C2063      C2064   1.412       .  A
C2063      C2068   1.410       .  A
C2064      C2065   1.409       .  A
C2064      C2069   1.452       .  S
C2065      C2066   1.412       .  A
C2065      C2072   1.450       .  S
C2066      C2067   1.411       .  A
C2067      C2068   1.411       .  A
C2067      C2070   1.449       .  S
C2068      C2071   1.450       .  S
C2069      N2076   1.157       .  T
C2070      N2075   1.157       .  T
C2071      N2073   1.157       .  T
C2072      N2074   1.157       .  T
C2077      C2078   1.415       .  A
C2077      C2082   1.414       .  A
C2078      C2079   1.411       .  A
C2078      C2083   1.453       .  S
C2079      C2080   1.411       .  A
C2079      C2086   1.445       .  S
C2080      C2081   1.414       .  A
C2081      C2082   1.412       .  A
C2081      C2084   1.452       .  S
C2082      C2085   1.451       .  S
C2083      N2090   1.157       .  T
C2084      N2089   1.157       .  T
C2085      N2087   1.157       .  T
C2086      N2088   1.155       .  T
C2091      C2092   1.420       .  A
C2091      C2096   1.415   1_545  A
C2092      C2093   1.408   1_545  A
C2092      C2097   1.453       .  S
C2093      C2094   1.412       .  A
C2093      C2100   1.449       .  S
C2094      C2095   1.417       .  A
C2095      C2096   1.408       .  A
C2095      C2098   1.452       .  S
C2096      C2099   1.452       .  S
C2097      N2104   1.158       .  T
C2098      N2103   1.158       .  T
C2099      N2101   1.157       .  T
C2100      N2102   1.157       .  T
C2105      C2106   1.410       .  A
C2105      C2110   1.411       .  A
C2106      C2107   1.411       .  A
C2106      C2111   1.452       .  S
C2107      C2108   1.423       .  A
C2107      C2114   1.453       .  S
C2108      C2109   1.419       .  A
C2109      C2110   1.418       .  A
C2109      C2112   1.450       .  S
C2110      C2113   1.449       .  S
C2111      N2118   1.157   1_455  T
C2112      N2117   1.157       .  T
C2113      N2115   1.157       .  T
C2114      N2116   1.158       .  T
C2119      C2120   1.414       .  A
C2119      C2124   1.404       .  A
C2120      C2121   1.401       .  A
C2120      C2125   1.453       .  S
C2121      C2122   1.412       .  A
C2121      C2128   1.454       .  S
C2122      C2123   1.421       .  A
C2123      C2124   1.408       .  A
C2123      C2126   1.450       .  S
C2124      C2127   1.451       .  S
C2125      N2132   1.156       .  T
C2126      N2131   1.157       .  T
C2127      N2129   1.157       .  T
C2128      N2130   1.158       .  T
C2133      C2134   1.429       .  A
C2133      C2138   1.427       .  A
C2134      C2135   1.410       .  A
C2134      C2139   1.451       .  S
C2135      C2136   1.404       .  A
C2135      C2142   1.454       .  S
C2136      C2137   1.404       .  A
C2137      C2138   1.410       .  A
C2137      C2140   1.453       .  S
C2138      C2141   1.452       .  S
C2139      N2146   1.157       .  T
C2140      N2145   1.157       .  T
C2141      N2143   1.158   1_565  T
C2142      N2144   1.157       .  T
C2147      C2148   1.428       .  A
C2147      C2152   1.423       .  A
C2148      C2149   1.411       .  A
C2148      C2153   1.452       .  S
C2149      C2150   1.409       .  A
C2149      C2156   1.453       .  S
C2150      C2151   1.408       .  A
C2151      C2152   1.412       .  A
C2151      C2154   1.453       .  S
C2152      C2155   1.446       .  S
C2153      N2160   1.158       .  T
C2154      N2159   1.157       .  T
C2155      N2157   1.155       .  T
C2156      N2158   1.157       .  T
C2161      C2162   1.419       .  A
C2161      C2166   1.411       .  A
C2162      C2163   1.401       .  A
C2162      C2167   1.454       .  S
C2163      C2164   1.406       .  A
C2163      C2170   1.450       .  S
C2164      C2165   1.416       .  A
C2165      C2166   1.420       .  A
C2165      C2168   1.449       .  S
C2166      C2169   1.448       .  S
C2167      N2174   1.157       .  T
C2168      N2173   1.157       .  T
C2169      N2171   1.157       .  T
C2170      N2172   1.155       .  T
C2175      C2176   1.415       .  A
C2175      C2180   1.405       .  A
C2176      C2177   1.407       .  A
C2176      C2181   1.450       .  S
C2177      C2178   1.409       .  A
C2177      C2184   1.453       .  S
C2178      C2179   1.414       .  A
C2179      C2180   1.411       .  A
C2179      C2182   1.444       .  S
C2180      C2183   1.451       .  S
C2181      N2188   1.157       .  T
C2182      N2187   1.155       .  T
C2183      N2185   1.157       .  T
C2184      N2186   1.158       .  T
C2189      C2190   1.420       .  A
C2189      C2194   1.417       .  A
C2190      C2191   1.413       .  A
C2190      C2195   1.453       .  S
C2191      C2192   1.416       .  A
C2191      C2198   1.452       .  S
C2192      C2193   1.420       .  A
C2193      C2194   1.413       .  A
C2193      C2196   1.453       .  S
C2194      C2197   1.448       .  S
C2195      N2202   1.157       .  T
C2196      N2201   1.158       .  T
C2197      N2199   1.156       .  T
C2198      N2200   1.157       .  T
C2203      C2204   1.426       .  A
C2203      C2208   1.426       .  A
C2204      C2205   1.412       .  A
C2204      C2209   1.452       .  S
C2205      C2206   1.406       .  A
C2205      C2212   1.450       .  S
C2206      C2207   1.406       .  A
C2207      C2208   1.410       .  A
C2207      C2210   1.453       .  S
C2208      C2211   1.452       .  S
C2209      N2216   1.158       .  T
C2210      N2215   1.157       .  T
C2211      N2213   1.158       .  T
C2212      N2214   1.156       .  T
C2217      C2218   1.419       .  A
C2217      C2222   1.416       .  A
C2218      C2219   1.416       .  A
C2218      C2223   1.451       .  S
C2219      C2220   1.412       .  A
C2219      C2226   1.451       .  S
C2220      C2221   1.417       .  A
C2221      C2222   1.413       .  A
C2221      C2224   1.452       .  S
C2222      C2225   1.452       .  S
C2223      N2230   1.157       .  T
C2224      N2229   1.158       .  T
C2225      N2227   1.157       .  T
C2226      N2228   1.157       .  T
C2231      C2232   1.416       .  A
C2231      C2236   1.417       .  A
C2232      C2233   1.418       .  A
C2232      C2237   1.451       .  S
C2233      C2234   1.419       .  A
C2233      C2240   1.451       .  S
C2234      C2235   1.418       .  A
C2235      C2236   1.417       .  A
C2235      C2238   1.451       .  S
C2236      C2239   1.452       .  S
C2237      N2244   1.157       .  T
C2238      N2243   1.157       .  T
C2239      N2241   1.158       .  T
C2240      N2242   1.157       .  T
C2245      C2246   1.407       .  A
C2245      C2250   1.409       .  A
C2246      C2247   1.405       .  A
C2246      C2251   1.450       .  S
C2247      C2248   1.413       .  A
C2247      C2254   1.452       .  S
C2248      C2249   1.410       .  A
C2249      C2250   1.409       .  A
C2249      C2252   1.451       .  S
C2250      C2253   1.448       .  S
C2251      N2258   1.157       .  T
C2252      N2257   1.157       .  T
C2253      N2255   1.157       .  T
C2254      N2256   1.157       .  T
C2259      C2260   1.418       .  A
C2259      C2264   1.411       .  A
C2260      C2261   1.408       .  A
C2260      C2265   1.453       .  S
C2261      C2262   1.414       .  A
C2261      C2268   1.453       .  S
C2262      C2263   1.416       .  A
C2263      C2264   1.404       .  A
C2263      C2266   1.447       .  S
C2264      C2267   1.453       .  S
C2265      N2272   1.157       .  T
C2266      N2271   1.156       .  T
C2267      N2269   1.157       .  T
C2268      N2270   1.157       .  T
C2273      C2274   1.418       .  A
C2273      C2278   1.418       .  A
C2274      C2275   1.412       .  A
C2274      C2279   1.453       .  S
C2275      C2276   1.422       .  A
C2275      C2282   1.453       .  S
C2276      C2277   1.420       .  A
C2277      C2278   1.412       .  A
C2277      C2280   1.449       .  S
C2278      C2281   1.452   1_556  S
C2279      N2286   1.157       .  T
C2280      N2285   1.157       .  T
C2281      N2283   1.158       .  T
C2282      N2284   1.158       .  T
C2287      C2288   1.412       .  A
C2287      C2292   1.410       .  A
C2288      C2289   1.407       .  A
C2288      C2293   1.451       .  S
C2289      C2290   1.409       .  A
C2289      C2296   1.451       .  S
C2290      C2291   1.413       .  A
C2291      C2292   1.413       .  A
C2291      C2294   1.450       .  S
C2292      C2295   1.450       .  S
C2293      N2300   1.157       .  T
C2294      N2299   1.157       .  T
C2295      N2297   1.157       .  T
C2296      N2298   1.157       .  T
C2301      C2302   1.414       .  A
C2301      C2306   1.415       .  A
C2302      C2303   1.412       .  A
C2302      C2307   1.451       .  S
C2303      C2304   1.414       .  A
C2303      C2310   1.451       .  S
C2304      C2305   1.412       .  A
C2305      C2306   1.412       .  A
C2305      C2308   1.450       .  S
C2306      C2309   1.452       .  S
C2307      N2314   1.157       .  T
C2308      N2313   1.157       .  T
C2309      N2311   1.157       .  T
C2310      N2312   1.157       .  T
C2315      C2316   1.417       .  A
C2315      C2320   1.418       .  A
C2316      C2317   1.406       .  A
C2316      C2321   1.453   1_556  S
C2317      C2318   1.415       .  A
C2317      C2324   1.449       .  S
C2318      C2319   1.418       .  A
C2319      C2320   1.418       .  A
C2319      C2322   1.451       .  S
C2320      C2323   1.451       .  S
C2321      N2328   1.157       .  T
C2322      N2327   1.157       .  T
C2323      N2325   1.157       .  T
C2324      N2326   1.156       .  T
C2329      C2330   1.414       .  A
C2329      C2334   1.415       .  A
C2330      C2331   1.413       .  A
C2330      C2335   1.451       .  S
C2331      C2332   1.414       .  A
C2331      C2338   1.452       .  S
C2332      C2333   1.414       .  A
C2333      C2334   1.418       .  A
C2333      C2336   1.450       .  S
C2334      C2337   1.450       .  S
C2335      N2342   1.157       .  T
C2336      N2341   1.157       .  T
C2337      N2339   1.157       .  T
C2338      N2340   1.157       .  T
C2343      C2344   1.417       .  A
C2343      C2348   1.426       .  A
C2344      C2345   1.413       .  A
C2344      C2349   1.449       .  S
C2345      C2346   1.414       .  A
C2345      C2352   1.452       .  S
C2346      C2347   1.407       .  A
C2347      C2348   1.414       .  A
C2347      C2350   1.453       .  S
C2348      C2351   1.448       .  S
C2349      N2356   1.156       .  T
C2350      N2355   1.157       .  T
C2351      N2353   1.157       .  T
C2352      N2354   1.157       .  T
C2357      C2358   1.411       .  A
C2357      C2362   1.413       .  A
C2358      C2359   1.411       .  A
C2358      C2363   1.450       .  S
C2359      C2360   1.412       .  A
C2359      C2366   1.451       .  S
C2360      C2361   1.407       .  A
C2361      C2362   1.401       .  A
C2361      C2364   1.452       .  S
C2362      C2365   1.451       .  S
C2363      N2370   1.157       .  T
C2364      N2369   1.157       .  T
C2365      N2367   1.157       .  T
C2366      N2368   1.157       .  T
C2371      C2372   1.413       .  A
C2371      C2376   1.418       .  A
C2372      C2373   1.415       .  A
C2372      C2377   1.448       .  S
C2373      C2374   1.417       .  A
C2373      C2380   1.452       .  S
C2374      C2375   1.410       .  A
C2375      C2376   1.409       .  A
C2375      C2378   1.446       .  S
C2376      C2379   1.453       .  S
C2377      N2384   1.156       .  T
C2378      N2383   1.156       .  T
C2379      N2381   1.157       .  T
C2380      N2382   1.157       .  T
C2385      C2386   1.411       .  A
C2385      C2390   1.419       .  A
C2386      C2387   1.409       .  A
C2386      C2391   1.452       .  S
C2387      C2388   1.417       .  A
C2387      C2394   1.452       .  S
C2388      C2389   1.407       .  A
C2389      C2390   1.411       .  A
C2389      C2392   1.450       .  S
C2390      C2393   1.452       .  S
C2391      N2398   1.158       .  T
C2392      N2397   1.157       .  T
C2393      N2395   1.157       .  T
C2394      N2396   1.157       .  T
C2399      C2400   1.413       .  A
C2399      C2404   1.422       .  A
C2400      C2401   1.403       .  A
C2400      C2405   1.456       .  S
C2401      C2402   1.429       .  A
C2401      C2408   1.457       .  S
C2402      C2403   1.413       .  A
C2403      C2404   1.414       .  A
C2403      C2406   1.448       .  S
C2404      C2407   1.453       .  S
C2405      N2412   1.158       .  T
C2406      N2411   1.156       .  T
C2407      N2409   1.158       .  T
C2408      N2410   1.158       .  T
C2413      C2414   1.410       .  A
C2413      C2418   1.410       .  A
C2414      C2415   1.415       .  A
C2414      C2419   1.449       .  S
C2415      C2416   1.415       .  A
C2415      C2422   1.450       .  S
C2416      C2417   1.411       .  A
C2417      C2418   1.408       .  A
C2417      C2420   1.447       .  S
C2418      C2421   1.453       .  S
C2419      N2426   1.157       .  T
C2420      N2425   1.156       .  T
C2421      N2423   1.157       .  T
C2422      N2424   1.157       .  T
C2427      C2428   1.416       .  A
C2427      C2432   1.424       .  A
C2428      C2429   1.412       .  A
C2428      C2433   1.453       .  S
C2429      C2430   1.424       .  A
C2429      C2436   1.452       .  S
C2430      C2431   1.419       .  A
C2431      C2432   1.416       .  A
C2431      C2434   1.453       .  S
C2432      C2435   1.452       .  S
C2433      N2440   1.157       .  T
C2434      N2439   1.158       .  T
C2435      N2437   1.157       .  T
C2436      N2438   1.158       .  T
C2441      C2442   1.418       .  A
C2441      C2446   1.416       .  A
C2442      C2443   1.414       .  A
C2442      C2447   1.451       .  S
C2443      C2444   1.412       .  A
C2443      C2450   1.451       .  S
C2444      C2445   1.414       .  A
C2445      C2446   1.415       .  A
C2445      C2448   1.451       .  S
C2446      C2449   1.451   1_554  S
C2447      N2454   1.157       .  T
C2448      N2453   1.157       .  T
C2449      N2451   1.157       .  T
C2450      N2452   1.157       .  T
C2455      C2456   1.410       .  A
C2455      C2460   1.411       .  A
C2456      C2457   1.406       .  A
C2456      C2461   1.451       .  S
C2457      C2458   1.409       .  A
C2457      C2464   1.452       .  S
C2458      C2459   1.409       .  A
C2459      C2460   1.407       .  A
C2459      C2462   1.450       .  S
C2460      C2463   1.451       .  S
C2461      N2468   1.157       .  T
C2462      N2467   1.157       .  T
C2463      N2465   1.157       .  T
C2464      N2466   1.157       .  T
C2469      C2470   1.420       .  A
C2469      C2474   1.415       .  A
C2470      C2471   1.412       .  A
C2470      C2475   1.453       .  S
C2471      C2472   1.417       .  A
C2471      C2478   1.451       .  S
C2472      C2473   1.427       .  A
C2473      C2474   1.415       .  A
C2473      C2476   1.454       .  S
C2474      C2477   1.452       .  S
C2475      N2482   1.158       .  T
C2476      N2481   1.158       .  T
C2477      N2479   1.158       .  T
C2478      N2480   1.158       .  T
C2483      C2484   1.413       .  A
C2483      C2488   1.420       .  A
C2484      C2485   1.415       .  A
C2484      C2489   1.450       .  S
C2485      C2486   1.415       .  A
C2485      C2492   1.451       .  S
C2486      C2487   1.410       .  A
C2487      C2488   1.411       .  A
C2487      C2490   1.452       .  S
C2488      C2491   1.452       .  S
C2489      N2496   1.157       .  T
C2490      N2495   1.157       .  T
C2491      N2493   1.157       .  T
C2492      N2494   1.158       .  T
C2497      C2498   1.416       .  A
C2497      C2502   1.416       .  A
C2498      C2499   1.413       .  A
C2498      C2503   1.451       .  S
C2499      C2500   1.413       .  A
C2499      C2506   1.452       .  S
C2500      C2501   1.413       .  A
C2501      C2502   1.407       .  A
C2501      C2504   1.454       .  S
C2502      C2505   1.450       .  S
C2503      N2510   1.157       .  T
C2504      N2509   1.157       .  T
C2505      N2507   1.156       .  T
C2506      N2508   1.158       .  T
C2511      C2512   1.416   1_556  A
C2511      C2516   1.416       .  A
C2512      C2513   1.411       .  A
C2512      C2517   1.451       .  S
C2513      C2514   1.414       .  A
C2513      C2520   1.452       .  S
C2514      C2515   1.414       .  A
C2515      C2516   1.410   1_554  A
C2515      C2518   1.452       .  S
C2516      C2519   1.452       .  S
C2517      N2524   1.157       .  T
C2518      N2523   1.157       .  T
C2519      N2521   1.157       .  T
C2520      N2522   1.158       .  T
C2525      C2526   1.411       .  A
C2525      C2530   1.411       .  A
C2526      C2527   1.410       .  A
C2526      C2531   1.450       .  S
C2527      C2528   1.412       .  A
C2527      C2534   1.451       .  S
C2528      C2529   1.410       .  A
C2529      C2530   1.408       .  A
C2529      C2532   1.451       .  S
C2530      C2533   1.450       .  S
C2531      N2538   1.157       .  T
C2532      N2537   1.157       .  T
C2533      N2535   1.157       .  T
C2534      N2536   1.157       .  T
C2539      C2540   1.413       .  A
C2539      C2544   1.413       .  A
C2540      C2541   1.411       .  A
C2540      C2545   1.452       .  S
C2541      C2542   1.411       .  A
C2541      C2548   1.449       .  S
C2542      C2543   1.415       .  A
C2543      C2544   1.410       .  A
C2543      C2546   1.451       .  S
C2544      C2547   1.452       .  S
C2545      N2552   1.157       .  T
C2546      N2551   1.157       .  T
C2547      N2549   1.157       .  T
C2548      N2550   1.157       .  T
C2553      C2554   1.421       .  A
C2553      C2558   1.417       .  A
C2554      C2555   1.413       .  A
C2554      C2559   1.449       .  S
C2555      C2556   1.410       .  A
C2555      C2562   1.453       .  S
C2556      C2557   1.415       .  A
C2557      C2558   1.414       .  A
C2557      C2560   1.452       .  S
C2558      C2561   1.450       .  S
C2559      N2566   1.156       .  T
C2560      N2565   1.157       .  T
C2561      N2563   1.157       .  T
C2562      N2564   1.157       .  T
C2567      C2568   1.411       .  A
C2567      C2572   1.409       .  A
C2568      C2569   1.412       .  A
C2568      C2573   1.450       .  S
C2569      C2570   1.411       .  A
C2569      C2576   1.450       .  S
C2570      C2571   1.410       .  A
C2571      C2572   1.404       .  A
C2571      C2574   1.452       .  S
C2572      C2575   1.449       .  S
C2573      N2580   1.157       .  T
C2574      N2579   1.157       .  T
C2575      N2577   1.156       .  T
C2576      N2578   1.157       .  T
C2581      C2582   1.416       .  A
C2581      C2586   1.422       .  A
C2582      C2583   1.403       .  A
C2582      C2587   1.455       .  S
C2583      C2584   1.418       .  A
C2583      C2590   1.455       .  S
C2584      C2585   1.405       .  A
C2585      C2586   1.411       .  A
C2585      C2588   1.450       .  S
C2586      C2589   1.451       .  S
C2587      N2594   1.158       .  T
C2588      N2593   1.157       .  T
C2589      N2591   1.157       .  T
C2590      N2592   1.158   1_554  T
C2595      C2596   1.408       .  A
C2595      C2600   1.411       .  A
C2596      C2597   1.411       .  A
C2596      C2601   1.450       .  S
C2597      C2598   1.412       .  A
C2597      C2604   1.449       .  S
C2598      C2599   1.408       .  A
C2599      C2600   1.406       .  A
C2599      C2602   1.450       .  S
C2600      C2603   1.449       .  S
C2601      N2608   1.157   1_556  T
C2602      N2607   1.157       .  T
C2603      N2605   1.157       .  T
C2604      N2606   1.157       .  T
C2609      C2610   1.410       .  A
C2609      C2614   1.417       .  A
C2610      C2611   1.419       .  A
C2610      C2615   1.449       .  S
C2611      C2612   1.418       .  A
C2611      C2618   1.450       .  S
C2612      C2613   1.412       .  A
C2613      C2614   1.411       .  A
C2613      C2616   1.453       .  S
C2614      C2617   1.449   1_554  S
C2615      N2622   1.157       .  T
C2616      N2621   1.158       .  T
C2617      N2619   1.156       .  T
C2618      N2620   1.157       .  T
C2623      C2624   1.421       .  A
C2623      C2628   1.434       .  A
C2624      C2625   1.409       .  A
C2624      C2629   1.451       .  S
C2625      C2626   1.407       .  A
C2625      C2632   1.452       .  S
C2626      C2627   1.398       .  A
C2627      C2628   1.404       .  A
C2627      C2630   1.457       .  S
C2628      C2631   1.451       .  S
C2629      N2636   1.158       .  T
C2630      N2635   1.157       .  T
C2631      N2633   1.157       .  T
C2632      N2634   1.157       .  T
C2637      C2638   1.416       .  A
C2637      C2642   1.412       .  A
C2638      C2639   1.411       .  A
C2638      C2643   1.451       .  S
C2639      C2640   1.409       .  A
C2639      C2646   1.451       .  S
C2640      C2641   1.410       .  A
C2641      C2642   1.409       .  A
C2641      C2644   1.453       .  S
C2642      C2645   1.445       .  S
C2643      N2650   1.157   1_554  T
C2644      N2649   1.157       .  T
C2645      N2647   1.155       .  T
C2646      N2648   1.157       .  T
C2651      C2652   1.428       .  A
C2651      C2656   1.416       .  A
C2652      C2653   1.410       .  A
C2652      C2657   1.458       .  S
C2653      C2654   1.422       .  A
C2653      C2660   1.457       .  S
C2654      C2655   1.427       .  A
C2655      C2656   1.420       .  A
C2655      C2658   1.452       .  S
C2656      C2659   1.450       .  S
C2657      N2664   1.158       .  T
C2658      N2663   1.158       .  T
C2659      N2661   1.157       .  T
C2660      N2662   1.158       .  T
C2665      C2666   1.424       .  A
C2665      C2670   1.424       .  A
C2666      C2667   1.412       .  A
C2666      C2671   1.452       .  S
C2667      C2668   1.409       .  A
C2667      C2674   1.452       .  S
C2668      C2669   1.411       .  A
C2669      C2670   1.417       .  A
C2669      C2672   1.450       .  S
C2670      C2673   1.450       .  S
C2671      N2678   1.158       .  T
C2672      N2677   1.157       .  T
C2673      N2675   1.157       .  T
C2674      N2676   1.157       .  T
C2679      C2680   1.400       .  A
C2679      C2684   1.407       .  A
C2680      C2681   1.409       .  A
C2680      C2685   1.449       .  S
C2681      C2682   1.425       .  A
C2681      C2688   1.451       .  S
C2682      C2683   1.424       .  A
C2683      C2684   1.404       .  A
C2683      C2686   1.454       .  S
C2684      C2687   1.454       .  S
C2685      N2692   1.157       .  T
C2686      N2691   1.158       .  T
C2687      N2689   1.158       .  T
C2688      N2690   1.157       .  T
C2693      C2694   1.426       .  A
C2693      C2698   1.422       .  A
C2694      C2695   1.412       .  A
C2694      C2699   1.453       .  S
C2695      C2696   1.413       .  A
C2695      C2702   1.454       .  S
C2696      C2697   1.421       .  A
C2697      C2698   1.407       .  A
C2697      C2700   1.457       .  S
C2698      C2701   1.456       .  S
C2699      N2706   1.158       .  T
C2700      N2705   1.158       .  T
C2701      N2703   1.158       .  T
C2702      N2704   1.158       .  T
C2707      C2708   1.406       .  A
C2707      C2712   1.413       .  A
C2708      C2709   1.406       .  A
C2708      C2713   1.451       .  S
C2709      C2710   1.413       .  A
C2709      C2716   1.450       .  S
C2710      C2711   1.406       .  A
C2711      C2712   1.408       .  A
C2711      C2714   1.451       .  S
C2712      C2715   1.448       .  S
C2713      N2720   1.157       .  T
C2714      N2719   1.157   1_455  T
C2715      N2717   1.156       .  T
C2716      N2718   1.157       .  T
C2721      C2722   1.415       .  A
C2721      C2726   1.416       .  A
C2722      C2723   1.410       .  A
C2722      C2727   1.452       .  S
C2723      C2724   1.414       .  A
C2723      C2730   1.452       .  S
C2724      C2725   1.414       .  A
C2725      C2726   1.411       .  A
C2725      C2728   1.452       .  S
C2726      C2729   1.452       .  S
C2727      N2734   1.157       .  T
C2728      N2733   1.157       .  T
C2729      N2731   1.157       .  T
C2730      N2732   1.157       .  T
C2735      C2736   1.410       .  A
C2735      C2740   1.412       .  A
C2736      C2737   1.410       .  A
C2736      C2741   1.451       .  S
C2737      C2738   1.412       .  A
C2737      C2744   1.450       .  S
C2738      C2739   1.410       .  A
C2739      C2740   1.409       .  A
C2739      C2742   1.452       .  S
C2740      C2743   1.450       .  S
C2741      N2748   1.157       .  T
C2742      N2747   1.157       .  T
C2743      N2745   1.157       .  T
C2744      N2746   1.157       .  T
C2749      C2750   1.420       .  A
C2749      C2754   1.418       .  A
C2750      C2751   1.411       .  A
C2750      C2755   1.451       .  S
C2751      C2752   1.417       .  A
C2751      C2758   1.452       .  S
C2752      C2753   1.419       .  A
C2753      C2754   1.415       .  A
C2753      C2756   1.448   1_545  S
C2754      C2757   1.454       .  S
C2755      N2762   1.157       .  T
C2756      N2761   1.156       .  T
C2757      N2759   1.158       .  T
C2758      N2760   1.157       .  T
C2763      C2764   1.409       .  A
C2763      C2768   1.414       .  A
C2764      C2765   1.407       .  A
C2764      C2769   1.451       .  S
C2765      C2766   1.418       .  A
C2765      C2772   1.453       .  S
C2766      C2767   1.415       .  A
C2767      C2768   1.415       .  A
C2767      C2770   1.450       .  S
C2768      C2771   1.450       .  S
C2769      N2776   1.157       .  T
C2770      N2775   1.157       .  T
C2771      N2773   1.157       .  T
C2772      N2774   1.158       .  T
C2777      C2778   1.409       .  A
C2777      C2782   1.409       .  A
C2778      C2779   1.409       .  A
C2778      C2783   1.451       .  S
C2779      C2780   1.411       .  A
C2779      C2786   1.448       .  S
C2780      C2781   1.409       .  A
C2781      C2782   1.406       .  A
C2781      C2784   1.452       .  S
C2782      C2785   1.444       .  S
C2783      N2790   1.157       .  T
C2784      N2789   1.157       .  T
C2785      N2787   1.154       .  T
C2786      N2788   1.156       .  T
C2791      C2792   1.420       .  A
C2791      C2796   1.419       .  A
C2792      C2793   1.415       .  A
C2792      C2797   1.451       .  S
C2793      C2794   1.414       .  A
C2793      C2800   1.452       .  S
C2794      C2795   1.415       .  A
C2795      C2796   1.410       .  A
C2795      C2798   1.450       .  S
C2796      C2799   1.452       .  S
C2797      N2804   1.157       .  T
C2798      N2803   1.158       .  T
C2799      N2801   1.158       .  T
C2800      N2802   1.158       .  T
C2805      C2806   1.410       .  A
C2805      C2810   1.409       .  A
C2806      C2807   1.407       .  A
C2806      C2811   1.452       .  S
C2807      C2808   1.410       .  A
C2807      C2814   1.444       .  S
C2808      C2809   1.420       .  A
C2809      C2810   1.417       .  A
C2809      C2812   1.450       .  S
C2810      C2813   1.449       .  S
C2811      N2818   1.157       .  T
C2812      N2817   1.157       .  T
C2813      N2815   1.157       .  T
C2814      N2816   1.155       .  T
C2819      C2820   1.427       .  A
C2819      C2824   1.424       .  A
C2820      C2821   1.413       .  A
C2820      C2825   1.450       .  S
C2821      C2822   1.415       .  A
C2821      C2828   1.456       .  S
C2822      C2823   1.415       .  A
C2823      C2824   1.417       .  A
C2823      C2826   1.452       .  S
C2824      C2827   1.450       .  S
C2825      N2832   1.157       .  T
C2826      N2831   1.157       .  T
C2827      N2829   1.157   1_565  T
C2828      N2830   1.158       .  T
C2833      C2834   1.415       .  A
C2833      C2838   1.412       .  A
C2834      C2835   1.418       .  A
C2834      C2839   1.450   1_545  S
C2835      C2836   1.417       .  A
C2835      C2842   1.450       .  S
C2836      C2837   1.416       .  A
C2837      C2838   1.411       .  A
C2837      C2840   1.452       .  S
C2838      C2841   1.451       .  S
C2839      N2846   1.157       .  T
C2840      N2845   1.158       .  T
C2841      N2843   1.157       .  T
C2842      N2844   1.157       .  T
C2847      C2848   1.412       .  A
C2847      C2852   1.415       .  A
C2848      C2849   1.415       .  A
C2848      C2853   1.451       .  S
C2849      C2850   1.419       .  A
C2849      C2856   1.451       .  S
C2850      C2851   1.414       .  A
C2851      C2852   1.412       .  A
C2851      C2854   1.451       .  S
C2852      C2855   1.451       .  S
C2853      N2860   1.157       .  T
C2854      N2859   1.157       .  T
C2855      N2857   1.157       .  T
C2856      N2858   1.157       .  T
C2861      C2862   1.408       .  A
C2861      C2866   1.412       .  A
C2862      C2863   1.408       .  A
C2862      C2867   1.451       .  S
C2863      C2864   1.411       .  A
C2863      C2870   1.448       .  S
C2864      C2865   1.409       .  A
C2865      C2866   1.406       .  A
C2865      C2868   1.450       .  S
C2866      C2869   1.452       .  S
C2867      N2874   1.157       .  T
C2868      N2873   1.157       .  T
C2869      N2871   1.157       .  T
C2870      N2872   1.156       .  T
C2875      C2876   1.409       .  A
C2875      C2880   1.409       .  A
C2876      C2877   1.404       .  A
C2876      C2881   1.452       .  S
C2877      C2878   1.411       .  A
C2877      C2884   1.451       .  S
C2878      C2879   1.413       .  A
C2879      C2880   1.405       .  A
C2879      C2882   1.452       .  S
C2880      C2883   1.452       .  S
C2881      N2888   1.157       .  T
C2882      N2887   1.157       .  T
C2883      N2885   1.157       .  T
C2884      N2886   1.157       .  T
C2889      C2890   1.414       .  A
C2889      C2894   1.417       .  A
C2890      C2891   1.405       .  A
C2890      C2895   1.453       .  S
C2891      C2892   1.415       .  A
C2891      C2898   1.453       .  S
C2892      C2893   1.413       .  A
C2893      C2894   1.410       .  A
C2893      C2896   1.452       .  S
C2894      C2897   1.452       .  S
C2895      N2902   1.157       .  T
C2896      N2901   1.157       .  T
C2897      N2899   1.158       .  T
C2898      N2900   1.158       .  T
C2903      C2904   1.410       .  A
C2903      C2908   1.407       .  A
C2904      C2905   1.416       .  A
C2904      C2909   1.450   1_545  S
C2905      C2906   1.419       .  A
C2905      C2912   1.448       .  S
C2906      C2907   1.422       .  A
C2907      C2908   1.414       .  A
C2907      C2910   1.451       .  S
C2908      C2911   1.450       .  S
C2909      N2916   1.157       .  T
C2910      N2915   1.157       .  T
C2911      N2913   1.157       .  T
C2912      N2914   1.157       .  T
C2917      C2918   1.413       .  A
C2917      C2922   1.406       .  A
C2918      C2919   1.405       .  A
C2918      C2923   1.456       .  S
C2919      C2920   1.424       .  A
C2919      C2926   1.455       .  S
C2920      C2921   1.425       .  A
C2921      C2922   1.412       .  A
C2921      C2924   1.451       .  S
C2922      C2925   1.452       .  S
C2923      N2930   1.158   1_545  T
C2924      N2929   1.157       .  T
C2925      N2927   1.157       .  T
C2926      N2928   1.158       .  T
C2931      C2932   1.415       .  A
C2931      C2936   1.409       .  A
C2932      C2933   1.409       .  A
C2932      C2937   1.449       .  S
C2933      C2934   1.408       .  A
C2933      C2940   1.452       .  S
C2934      C2935   1.411       .  A
C2935      C2936   1.410       .  A
C2935      C2938   1.447       .  S
C2936      C2939   1.452       .  S
C2937      N2944   1.156       .  T
C2938      N2943   1.156       .  T
C2939      N2941   1.157       .  T
C2940      N2942   1.157       .  T
C2945      C2946   1.418       .  A
C2945      C2950   1.408       .  A
C2946      C2947   1.410       .  A
C2946      C2951   1.455       .  S
C2947      C2948   1.423       .  A
C2947      C2954   1.454       .  S
C2948      C2949   1.427       .  A
C2949      C2950   1.408       .  A
C2949      C2952   1.453       .  S
C2950      C2953   1.451       .  S
C2951      N2958   1.158       .  T
C2952      N2957   1.158       .  T
C2953      N2955   1.156       .  T
C2954      N2956   1.158       .  T
C2959      C2960   1.418       .  A
C2959      C2964   1.410       .  A
C2960      C2961   1.407       .  A
C2960      C2965   1.454       .  S
C2961      C2962   1.412       .  A
C2961      C2968   1.453       .  S
C2962      C2963   1.418       .  A
C2963      C2964   1.409       .  A
C2963      C2966   1.453       .  S
C2964      C2967   1.450       .  S
C2965      N2972   1.158       .  T
C2966      N2971   1.157       .  T
C2967      N2969   1.157       .  T
C2968      N2970   1.157       .  T
C2973      C2974   1.428       .  A
C2973      C2978   1.423       .  A
C2974      C2975   1.412       .  A
C2974      C2979   1.454       .  S
C2975      C2976   1.407       .  A
C2975      C2982   1.450       .  S
C2976      C2977   1.411       .  A
C2977      C2978   1.421       .  A
C2977      C2980   1.451       .  S
C2978      C2981   1.449       .  S
C2979      N2986   1.158       .  T
C2980      N2985   1.157       .  T
C2981      N2983   1.157       .  T
C2982      N2984   1.156   1_455  T
C2987      C2988   1.401       .  A
C2987      C2992   1.405       .  A
C2988      C2989   1.408       .  A
C2988      C2993   1.450   1_655  S
C2989      C2990   1.429       .  A
C2989      C2996   1.453       .  S
C2990      C2991   1.422       .  A
C2991      C2992   1.415       .  A
C2991      C2994   1.448       .  S
C2992      C2995   1.452       .  S
C2993      N3000   1.156       .  T
C2994      N2999   1.157       .  T
C2995      N2997   1.157       .  T
C2996      N2998   1.158       .  T
C3001      C3002   1.410       .  A
C3001      C3006   1.420       .  A
C3002      C3003   1.413       .  A
C3002      C3007   1.451       .  S
C3003      C3004   1.417       .  A
C3003      C3010   1.448       .  S
C3004      C3005   1.410       .  A
C3005      C3006   1.406       .  A
C3005      C3008   1.455       .  S
C3006      C3009   1.448       .  S
C3007      N3014   1.157       .  T
C3008      N3013   1.158       .  T
C3009      N3011   1.155       .  T
C3010      N3012   1.156       .  T
C3015      C3016   1.420       .  A
C3015      C3020   1.419       .  A
C3016      C3017   1.416       .  A
C3016      C3021   1.451       .  S
C3017      C3018   1.413       .  A
C3017      C3024   1.451       .  S
C3018      C3019   1.417       .  A
C3019      C3020   1.404       .  A
C3019      C3022   1.455       .  S
C3020      C3023   1.456       .  S
C3021      N3028   1.157       .  T
C3022      N3027   1.157       .  T
C3023      N3025   1.158       .  T
C3024      N3026   1.157       .  T
C3029      C3030   1.411       .  A
C3029      C3034   1.422       .  A
C3030      C3031   1.411       .  A
C3030      C3035   1.453       .  S
C3031      C3032   1.424       .  A
C3031      C3038   1.453       .  S
C3032      C3033   1.415       .  A
C3033      C3034   1.410       .  A
C3033      C3036   1.452       .  S
C3034      C3037   1.455       .  S
C3035      N3042   1.158       .  T
C3036      N3041   1.157       .  T
C3037      N3039   1.158       .  T
C3038      N3040   1.158       .  T
C3043      C3044   1.404       .  A
C3043      C3048   1.414       .  A
C3044      C3045   1.410       .  A
C3044      C3049   1.451       .  S
C3045      C3046   1.422       .  A
C3045      C3052   1.449       .  S
C3046      C3047   1.414       .  A
C3047      C3048   1.403       .  A
C3047      C3050   1.454       .  S
C3048      C3051   1.455       .  S
C3049      N3056   1.157       .  T
C3050      N3055   1.158       .  T
C3051      N3053   1.157       .  T
C3052      N3054   1.157       .  T
C3057      C3058   1.407       .  A
C3057      C3062   1.400       .  A
C3058      C3059   1.412       .  A
C3058      C3063   1.450       .  S
C3059      C3060   1.419       .  A
C3059      C3066   1.449       .  S
C3060      C3061   1.427       .  A
C3061      C3062   1.407       .  A
C3061      C3064   1.452       .  S
C3062      C3065   1.452       .  S
C3063      N3070   1.157       .  T
C3064      N3069   1.158       .  T
C3065      N3067   1.158       .  T
C3066      N3068   1.157       .  T
C3071      C3072   1.412       .  A
C3071      C3076   1.419       .  A
C3072      C3073   1.408       .  A
C3072      C3077   1.451       .  S
C3073      C3074   1.416       .  A
C3073      C3080   1.452       .  S
C3074      C3075   1.409       .  A
C3075      C3076   1.404       .  A
C3075      C3078   1.455       .  S
C3076      C3079   1.451       .  S
C3077      N3084   1.157       .  T
C3078      N3083   1.157       .  T
C3079      N3081   1.156       .  T
C3080      N3082   1.157       .  T
C3085      C3086   1.419       .  A
C3085      C3090   1.407       .  A
C3086      C3087   1.413       .  A
C3086      C3091   1.455       .  S
C3087      C3088   1.424       .  A
C3087      C3094   1.454       .  S
C3088      C3089   1.432       .  A
C3089      C3090   1.420       .  A
C3089      C3092   1.451       .  S
C3090      C3093   1.452       .  S
C3091      N3098   1.157       .  T
C3092      N3097   1.158       .  T
C3093      N3095   1.157       .  T
C3094      N3096   1.158       .  T
C3099      C3100   1.423       .  A
C3099      C3104   1.415       .  A
C3100      C3101   1.397       .  A
C3100      C3105   1.456       .  S
C3101      C3102   1.409       .  A
C3101      C3108   1.456       .  S
C3102      C3103   1.416       .  A
C3103      C3104   1.424       .  A
C3103      C3106   1.449       .  S
C3104      C3107   1.447       .  S
C3105      N3112   1.158       .  T
C3106      N3111   1.157       .  T
C3107      N3109   1.157       .  T
C3108      N3110   1.158       .  T
C3113      C3114   1.417       .  A
C3113      C3118   1.425       .  A
C3114      C3115   1.409       .  A
C3114      C3119   1.451       .  S
C3115      C3116   1.408       .  A
C3115      C3122   1.449       .  S
C3116      C3117   1.403       .  A
C3117      C3118   1.407       .  A
C3117      C3120   1.452       .  S
C3118      C3121   1.452       .  S
C3119      N3126   1.157       .  T
C3120      N3125   1.157       .  T
C3121      N3123   1.157       .  T
C3122      N3124   1.157       .  T
C3127      C3128   1.415       .  A
C3127      C3132   1.419       .  A
C3128      C3129   1.420       .  A
C3128      C3133   1.450       .  S
C3129      C3130   1.418       .  A
C3129      C3136   1.450       .  S
C3130      C3131   1.412       .  A
C3131      C3132   1.405       .  A
C3131      C3134   1.456       .  S
C3132      C3135   1.449       .  S
C3133      N3140   1.157       .  T
C3134      N3139   1.158       .  T
C3135      N3137   1.155       .  T
C3136      N3138   1.157       .  T
C3141      C3142   1.411       .  A
C3141      C3146   1.421       .  A
C3142      C3143   1.413       .  A
C3142      C3147   1.450       .  S
C3143      C3144   1.425       .  A
C3143      C3150   1.454       .  S
C3144      C3145   1.413       .  A
C3145      C3146   1.412       .  A
C3145      C3148   1.452       .  S
C3146      C3149   1.453       .  S
C3147      N3154   1.157       .  T
C3148      N3153   1.158       .  T
C3149      N3151   1.157       .  T
C3150      N3152   1.158       .  T
C3155      C3156   1.409       .  A
C3155      C3160   1.410       .  A
C3156      C3157   1.416       .  A
C3156      C3161   1.450       .  S
C3157      C3158   1.419       .  A
C3157      C3164   1.450       .  S
C3158      C3159   1.414       .  A
C3159      C3160   1.403       .  A
C3159      C3162   1.455       .  S
C3160      C3163   1.450       .  S
C3161      N3168   1.157       .  T
C3162      N3167   1.158       .  T
C3163      N3165   1.156       .  T
C3164      N3166   1.157       .  T
C3169      C3170   1.406       .  A
C3169      C3174   1.413       .  A
C3170      C3171   1.404       .  A
C3170      C3175   1.455       .  S
C3171      C3172   1.421       .  A
C3171      C3178   1.452       .  S
C3172      C3173   1.412       .  A
C3173      C3174   1.417       .  A
C3173      C3176   1.448       .  S
C3174      C3177   1.449       .  S
C3175      N3182   1.157       .  T
C3176      N3181   1.157       .  T
C3177      N3179   1.157       .  T
C3178      N3180   1.157       .  T
C3183      C3184   1.408       .  A
C3183      C3188   1.412       .  A
C3184      C3185   1.408       .  A
C3184      C3189   1.448       .  S
C3185      C3186   1.411       .  A
C3185      C3192   1.447       .  S
C3186      C3187   1.414       .  A
C3187      C3188   1.419       .  A
C3187      C3190   1.448       .  S
C3188      C3191   1.448       .  S
C3189      N3196   1.157       .  T
C3190      N3195   1.157       .  T
C3191      N3193   1.157       .  T
C3192      N3194   1.157       .  T
C3197      C3198   1.414       .  A
C3197      C3202   1.406       .  A
C3198      C3199   1.412       .  A
C3198      C3203   1.453       .  S
C3199      C3200   1.422       .  A
C3199      C3206   1.451       .  S
C3200      C3201   1.429       .  A
C3201      C3202   1.411       .  A
C3201      C3204   1.454       .  S
C3202      C3205   1.448       .  S
C3203      N3210   1.157       .  T
C3204      N3209   1.158       .  T
C3205      N3207   1.156       .  T
C3206      N3208   1.158       .  T
C3211      C3212   1.425       .  A
C3211      C3216   1.423       .  A
C3212      C3213   1.404       .  A
C3212      C3217   1.455       .  S
C3213      C3214   1.412       .  A
C3213      C3220   1.455       .  S
C3214      C3215   1.401       .  A
C3215      C3216   1.407       .  A
C3215      C3218   1.451       .  S
C3216      C3219   1.449       .  S
C3217      N3224   1.158       .  T
C3218      N3223   1.157       .  T
C3219      N3221   1.158       .  T
C3220      N3222   1.158       .  T
C3225      C3226   1.410       .  A
C3225      C3230   1.401       .  A
C3226      C3227   1.414       .  A
C3226      C3231   1.452       .  S
C3227      C3228   1.421       .  A
C3227      C3234   1.451       .  S
C3228      C3229   1.420       .  A
C3229      C3230   1.403       .  A
C3229      C3232   1.446       .  S
C3230      C3233   1.451       .  S
C3231      N3238   1.157       .  T
C3232      N3237   1.156       .  T
C3233      N3235   1.155       .  T
C3234      N3236   1.157       .  T
C3239      C3240   1.429       .  A
C3239      C3244   1.421       .  A
C3240      C3241   1.417       .  A
C3240      C3245   1.451       .  S
C3241      C3242   1.409       .  A
C3241      C3248   1.451       .  S
C3242      C3243   1.409       .  A
C3243      C3244   1.407       .  A
C3243      C3246   1.445       .  S
C3244      C3247   1.454       .  S
C3245      N3252   1.158       .  T
C3246      N3251   1.154   1_655  T
C3247      N3249   1.158       .  T
C3248      N3250   1.157       .  T
C3253      C3254   1.410       .  A
C3253      C3258   1.419       .  A
C3254      C3255   1.412       .  A
C3254      C3259   1.447       .  S
C3255      C3256   1.422       .  A
C3255      C3262   1.452       .  S
C3256      C3257   1.417       .  A
C3257      C3258   1.412       .  A
C3257      C3260   1.451       .  S
C3258      C3261   1.454       .  S
C3259      N3266   1.156       .  T
C3260      N3265   1.158       .  T
C3261      N3263   1.157   1_554  T
C3262      N3264   1.157       .  T
C3267      C3268   1.423       .  A
C3267      C3272   1.424       .  A
C3268      C3269   1.413       .  A
C3268      C3273   1.451       .  S
C3269      C3270   1.409       .  A
C3269      C3276   1.449       .  S
C3270      C3271   1.405       .  A
C3271      C3272   1.405       .  A
C3271      C3274   1.451       .  S
C3272      C3275   1.452       .  S
C3273      N3280   1.158       .  T
C3274      N3279   1.158       .  T
C3275      N3277   1.158       .  T
C3276      N3278   1.156       .  T
C3281      C3282   1.413       .  A
C3281      C3286   1.414       .  A
C3282      C3283   1.421       .  A
C3282      C3287   1.449       .  S
C3283      C3284   1.417       .  A
C3283      C3290   1.449       .  S
C3284      C3285   1.415       .  A
C3285      C3286   1.404       .  A
C3285      C3288   1.456       .  S
C3286      C3289   1.452       .  S
C3287      N3294   1.157       .  T
C3288      N3293   1.158       .  T
C3289      N3291   1.156       .  T
C3290      N3292   1.157       .  T
C3295      C3296   1.417       .  A
C3295      C3300   1.418       .  A
C3296      C3297   1.416       .  A
C3296      C3301   1.445       .  S
C3297      C3298   1.410       .  A
C3297      C3304   1.450       .  S
C3298      C3299   1.414       .  A
C3299      C3300   1.404       .  A
C3299      C3302   1.453       .  S
C3300      C3303   1.454       .  S
C3301      N3308   1.156       .  T
C3302      N3307   1.157       .  T
C3303      N3305   1.158       .  T
C3304      N3306   1.157       .  T
C3309      C3310   1.421       .  A
C3309      C3314   1.417       .  A
C3310      C3311   1.413       .  A
C3310      C3315   1.451       .  S
C3311      C3312   1.408       .  A
C3311      C3318   1.450       .  S
C3312      C3313   1.402       .  A
C3313      C3314   1.405       .  A
C3313      C3316   1.449       .  S
C3314      C3317   1.444       .  S
C3315      N3322   1.157       .  T
C3316      N3321   1.156       .  T
C3317      N3319   1.155       .  T
C3318      N3320   1.157       .  T
C3323      C3324   1.411       .  A
C3323      C3328   1.415       .  A
C3324      C3325   1.416       .  A
C3324      C3329   1.449       .  S
C3325      C3326   1.414       .  A
C3325      C3332   1.450       .  S
C3326      C3327   1.408       .  A
C3327      C3328   1.410       .  A
C3327      C3330   1.449       .  S
C3328      C3331   1.452       .  S
C3329      N3336   1.157       .  T
C3330      N3335   1.157       .  T
C3331      N3333   1.157       .  T
C3332      N3334   1.157       .  T
C3337      C3338   1.412       .  A
C3337      C3342   1.407       .  A
C3338      C3339   1.414       .  A
C3338      C3343   1.450       .  S
C3339      C3340   1.411       .  A
C3339      C3346   1.449       .  S
C3340      C3341   1.417       .  A
C3341      C3342   1.403       .  A
C3341      C3344   1.453       .  S
C3342      C3345   1.454       .  S
C3343      N3350   1.157       .  T
C3344      N3349   1.157       .  T
C3345      N3347   1.157       .  T
C3346      N3348   1.157       .  T
C3351      C3352   1.408       .  A
C3351      C3356   1.413       .  A
C3352      C3353   1.404       .  A
C3352      C3357   1.448       .  S
C3353      C3354   1.411       .  A
C3353      C3360   1.451       .  S
C3354      C3355   1.411       .  A
C3355      C3356   1.416       .  A
C3355      C3358   1.449       .  S
C3356      C3359   1.450       .  S
C3357      N3364   1.155       .  T
C3358      N3363   1.157       .  T
C3359      N3361   1.157       .  T
C3360      N3362   1.157       .  T
C3365      C3366   1.405       .  A
C3365      C3370   1.412       .  A
C3366      C3367   1.402       .  A
C3366      C3371   1.448       .  S
C3367      C3368   1.419       .  A
C3367      C3374   1.456       .  S
C3368      C3369   1.415       .  A
C3369      C3370   1.418       .  A
C3369      C3372   1.449       .  S
C3370      C3373   1.450       .  S
C3371      N3378   1.155       .  T
C3372      N3377   1.157       .  T
C3373      N3375   1.157       .  T
C3374      N3376   1.158       .  T
C3379      C3380   1.413       .  A
C3379      C3384   1.420       .  A
C3380      C3381   1.413       .  A
C3380      C3385   1.450       .  S
C3381      C3382   1.410       .  A
C3381      C3388   1.448       .  S
C3382      C3383   1.402       .  A
C3383      C3384   1.406       .  A
C3383      C3386   1.452       .  S
C3384      C3387   1.450       .  S
C3385      N3392   1.157       .  T
C3386      N3391   1.157       .  T
C3387      N3389   1.157       .  T
C3388      N3390   1.157       .  T
C3393      C3394   1.406       .  A
C3393      C3398   1.408       .  A
C3394      C3395   1.408       .  A
C3394      C3399   1.451       .  S
C3395      C3396   1.416       .  A
C3395      C3402   1.450       .  S
C3396      C3397   1.414       .  A
C3397      C3398   1.411       .  A
C3397      C3400   1.451       .  S
C3398      C3401   1.450       .  S
C3399      N3406   1.157       .  T
C3400      N3405   1.157       .  T
C3401      N3403   1.157       .  T
C3402      N3404   1.157       .  T
C3407      C3408   1.425       .  A
C3407      C3412   1.413       .  A
C3408      C3409   1.403       .  A
C3408      C3413   1.455       .  S
C3409      C3410   1.403       .  A
C3409      C3416   1.452       .  S
C3410      C3411   1.415       .  A
C3411      C3412   1.420       .  A
C3411      C3414   1.448       .  S
C3412      C3415   1.449       .  S
C3413      N3420   1.157       .  T
C3414      N3419   1.157       .  T
C3415      N3417   1.157       .  T
C3416      N3418   1.157       .  T
C3421      C3422   1.406       .  A
C3421      C3426   1.406       .  A
C3422      C3423   1.412       .  A
C3422      C3427   1.452       .  S
C3423      C3424   1.425       .  A
C3423      C3430   1.452       .  S
C3424      C3425   1.422       .  A
C3425      C3426   1.410       .  A
C3425      C3428   1.448       .  S
C3426      C3429   1.455       .  S
C3427      N3434   1.157       .  T
C3428      N3433   1.156       .  T
C3429      N3431   1.157       .  T
C3430      N3432   1.157       .  T
C3435      C3436   1.405       .  A
C3435      C3440   1.414       .  A
C3436      C3437   1.406       .  A
C3436      C3441   1.454       .  S
C3437      C3438   1.428       .  A
C3437      C3444   1.454       .  S
C3438      C3439   1.417       .  A
C3439      C3440   1.419       .  A
C3439      C3442   1.449       .  S
C3440      C3443   1.450       .  S
C3441      N3448   1.157       .  T
C3442      N3447   1.158       .  T
C3443      N3445   1.157       .  T
C3444      N3446   1.158       .  T
C3449      C3450   1.413       .  A
C3449      C3454   1.425       .  A
C3450      C3451   1.410       .  A
C3450      C3455   1.448       .  S
C3451      C3452   1.415       .  A
C3451      C3458   1.454       .  S
C3452      C3453   1.407       .  A
C3453      C3454   1.421       .  A
C3453      C3456   1.448       .  S
C3454      C3457   1.450       .  S
C3455      N3462   1.156       .  T
C3456      N3461   1.157       .  T
C3457      N3459   1.157       .  T
C3458      N3460   1.157       .  T
C3463      C3464   1.412       .  A
C3463      C3468   1.411       .  A
C3464      C3465   1.410       .  A
C3464      C3469   1.454       .  S
C3465      C3466   1.413       .  A
C3465      C3472   1.446       .  S
C3466      C3467   1.417       .  A
C3467      C3468   1.421       .  A
C3467      C3470   1.448       .  S
C3468      C3471   1.448       .  S
C3469      N3476   1.157       .  T
C3470      N3475   1.157       .  T
C3471      N3473   1.157       .  T
C3472      N3474   1.155       .  T
C3477      C3478   1.416       .  A
C3477      C3482   1.410       .  A
C3478      C3479   1.415       .  A
C3478      C3483   1.450       .  S
C3479      C3480   1.412       .  A
C3479      C3486   1.450       .  S
C3480      C3481   1.423       .  A
C3481      C3482   1.406       .  A
C3481      C3484   1.454       .  S
C3482      C3485   1.454       .  S
C3483      N3490   1.157       .  T
C3484      N3489   1.158       .  T
C3485      N3487   1.157       .  T
C3486      N3488   1.157       .  T
C3491      C3492   1.422       .  A
C3491      C3496   1.415       .  A
C3492      C3493   1.410       .  A
C3492      C3497   1.455       .  S
C3493      C3494   1.414       .  A
C3493      C3500   1.450       .  S
C3494      C3495   1.413       .  A
C3495      C3496   1.413       .  A
C3495      C3498   1.455       .  S
C3496      C3499   1.437       .  S
C3497      N3504   1.158       .  T
C3498      N3503   1.158       .  T
C3499      N3501   1.152       .  T
C3500      N3502   1.157       .  T
C3505      C3506   1.412       .  A
C3505      C3510   1.414       .  A
C3506      C3507   1.418       .  A
C3506      C3511   1.449       .  S
C3507      C3508   1.420       .  A
C3507      C3514   1.450       .  S
C3508      C3509   1.417       .  A
C3509      C3510   1.407       .  A
C3509      C3512   1.453       .  S
C3510      C3513   1.454       .  S
C3511      N3518   1.157       .  T
C3512      N3517   1.158       .  T
C3513      N3515   1.157       .  T
C3514      N3516   1.157       .  T
C3519      C3520   1.410       .  A
C3519      C3524   1.421       .  A
C3520      C3521   1.415       .  A
C3520      C3525   1.450       .  S
C3521      C3522   1.421       .  A
C3521      C3528   1.451       .  S
C3522      C3523   1.413       .  A
C3523      C3524   1.409       .  A
C3523      C3526   1.453       .  S
C3524      C3527   1.454       .  S
C3525      N3532   1.157       .  T
C3526      N3531   1.158       .  T
C3527      N3529   1.157       .  T
C3528      N3530   1.157       .  T
C3533      C3534   1.411       .  A
C3533      C3538   1.424       .  A
C3534      C3535   1.401       .  A
C3534      C3539   1.446       .  S
C3535      C3536   1.408       .  A
C3535      C3542   1.448       .  S
C3536      C3537   1.410       .  A
C3537      C3538   1.423       .  A
C3537      C3540   1.449       .  S
C3538      C3541   1.447       .  S
C3539      N3546   1.154       .  T
C3540      N3545   1.157       .  T
C3541      N3543   1.157       .  T
C3542      N3544   1.156       .  T
C3547      C3548   1.407       .  A
C3547      C3552   1.412       .  A
C3548      C3549   1.406       .  A
C3548      C3553   1.453       .  S
C3549      C3550   1.420       .  A
C3549      C3556   1.452       .  S
C3550      C3551   1.412       .  A
C3551      C3552   1.414       .  A
C3551      C3554   1.450       .  S
C3552      C3555   1.450       .  S
C3553      N3560   1.157       .  T
C3554      N3559   1.157       .  T
C3555      N3557   1.157       .  T
C3556      N3558   1.157       .  T
C3561      C3562   1.426       .  A
C3561      C3566   1.426       .  A
C3562      C3563   1.409       .  A
C3562      C3567   1.452       .  S
C3563      C3564   1.409       .  A
C3563      C3570   1.454       .  S
C3564      C3565   1.410       .  A
C3565      C3566   1.417       .  A
C3565      C3568   1.452       .  S
C3566      C3569   1.451       .  S
C3567      N3574   1.158       .  T
C3568      N3573   1.158   1_655  T
C3569      N3571   1.158       .  T
C3570      N3572   1.157       .  T
C3575      C3576   1.422       .  A
C3575      C3580   1.422       .  A
C3576      C3577   1.415       .  A
C3576      C3581   1.450       .  S
C3577      C3578   1.410       .  A
C3577      C3584   1.451       .  S
C3578      C3579   1.403       .  A
C3579      C3580   1.406       .  A
C3579      C3582   1.447       .  S
C3580      C3583   1.452       .  S
C3581      N3588   1.158       .  T
C3582      N3587   1.156       .  T
C3583      N3585   1.158       .  T
C3584      N3586   1.157   1_556  T
C3589      C3590   1.421       .  A
C3589      C3594   1.424       .  A
C3590      C3591   1.417       .  A
C3590      C3595   1.449       .  S
C3591      C3592   1.409       .  A
C3591      C3598   1.450   1_565  S
C3592      C3593   1.402       .  A
C3593      C3594   1.411       .  A
C3593      C3596   1.448       .  S
C3594      C3597   1.451       .  S
C3595      N3602   1.157       .  T
C3596      N3601   1.157       .  T
C3597      N3599   1.157       .  T
C3598      N3600   1.157       .  T
C3603      C3604   1.413       .  A
C3603      C3608   1.420       .  A
C3604      C3605   1.409       .  A
C3604      C3609   1.453       .  S
C3605      C3606   1.415       .  A
C3605      C3612   1.453       .  S
C3606      C3607   1.409       .  A
C3607      C3608   1.419       .  A
C3607      C3610   1.449       .  S
C3608      C3611   1.450       .  S
C3609      N3616   1.157       .  T
C3610      N3615   1.157       .  T
C3611      N3613   1.157       .  T
C3612      N3614   1.157       .  T
C3617      C3618   1.431       .  A
C3617      C3622   1.421       .  A
C3618      C3619   1.409       .  A
C3618      C3623   1.452       .  S
C3619      C3620   1.401       .  A
C3619      C3626   1.453       .  S
C3620      C3621   1.411       .  A
C3621      C3622   1.402       .  A
C3621      C3624   1.455       .  S
C3622      C3625   1.455       .  S
C3623      N3630   1.158       .  T
C3624      N3629   1.157       .  T
C3625      N3627   1.158       .  T
C3626      N3628   1.157       .  T
C3631      C3632   1.409       .  A
C3631      C3636   1.413       .  A
C3632      C3633   1.415       .  A
C3632      C3637   1.453       .  S
C3633      C3634   1.417       .  A
C3633      C3640   1.438       .  S
C3634      C3635   1.419       .  A
C3635      C3636   1.419       .  A
C3635      C3638   1.450       .  S
C3636      C3639   1.450       .  S
C3637      N3644   1.157       .  T
C3638      N3643   1.157       .  T
C3639      N3641   1.157       .  T
C3640      N3642   1.152   1_556  T
C3645      C3646   1.404       .  A
C3645      C3650   1.413       .  A
C3646      C3647   1.406       .  A
C3646      C3651   1.448       .  S
C3647      C3648   1.425       .  A
C3647      C3654   1.454       .  S
C3648      C3649   1.423       .  A
C3649      C3650   1.425       .  A
C3649      C3652   1.449       .  S
C3650      C3653   1.449       .  S
C3651      N3658   1.156       .  T
C3652      N3657   1.157       .  T
C3653      N3655   1.157       .  T
C3654      N3656   1.158   1_655  T
C3659      C3660   1.413       .  A
C3659      C3664   1.412       .  A
C3660      C3661   1.415       .  A
C3660      C3665   1.454       .  S
C3661      C3662   1.418       .  A
C3661      C3668   1.445       .  S
C3662      C3663   1.422       .  A
C3663      C3664   1.415       .  A
C3663      C3666   1.452       .  S
C3664      C3667   1.451       .  S
C3665      N3672   1.157       .  T
C3666      N3671   1.157       .  T
C3667      N3669   1.157       .  T
C3668      N3670   1.155       .  T
C3673      C3674   1.429       .  A
C3673      C3678   1.425       .  A
C3674      C3675   1.406       .  A
C3674      C3679   1.453       .  S
C3675      C3676   1.403       .  A
C3675      C3682   1.454       .  S
C3676      C3677   1.405       .  A
C3677      C3678   1.413       .  A
C3677      C3680   1.451       .  S
C3678      C3681   1.450       .  S
C3679      N3686   1.158       .  T
C3680      N3685   1.157       .  T
C3681      N3683   1.158       .  T
C3682      N3684   1.157       .  T
C3687      C3688   1.411       .  A
C3687      C3692   1.407       .  A
C3688      C3689   1.412       .  A
C3688      C3693   1.450       .  S
C3689      C3690   1.416       .  A
C3689      C3696   1.451       .  S
C3690      C3691   1.416       .  A
C3691      C3692   1.408       .  A
C3691      C3694   1.450       .  S
C3692      C3695   1.447       .  S
C3693      N3700   1.157       .  T
C3694      N3699   1.156       .  T
C3695      N3697   1.155       .  T
C3696      N3698   1.157       .  T
C3701      C3702   1.413       .  A
C3701      C3706   1.418       .  A
C3702      C3703   1.411       .  A
C3702      C3707   1.451       .  S
C3703      C3704   1.410       .  A
C3703      C3710   1.449       .  S
C3704      C3705   1.405       .  A
C3705      C3706   1.411       .  A
C3705      C3708   1.450       .  S
C3706      C3709   1.450       .  S
C3707      N3714   1.157       .  T
C3708      N3713   1.157       .  T
C3709      N3711   1.157       .  T
C3710      N3712   1.157       .  T
C3715      C3716   1.416       .  A
C3715      C3720   1.412       .  A
C3716      C3717   1.408       .  A
C3716      C3721   1.452       .  S
C3717      C3718   1.414       .  A
C3717      C3724   1.452       .  S
C3718      C3719   1.411       .  A
C3719      C3720   1.404       .  A
C3719      C3722   1.450       .  S
C3720      C3723   1.446       .  S
C3721      N3728   1.157       .  T
C3722      N3727   1.158       .  T
C3723      N3725   1.157       .  T
C3724      N3726   1.157       .  T
C3729      C3730   1.419       .  A
C3729      C3734   1.420       .  A
C3730      C3731   1.413       .  A
C3730      C3735   1.452       .  S
C3731      C3732   1.419       .  A
C3731      C3738   1.448       .  S
C3732      C3733   1.420       .  A
C3733      C3734   1.416       .  A
C3733      C3736   1.452       .  S
C3734      C3737   1.452       .  S
C3735      N3742   1.158       .  T
C3736      N3741   1.158       .  T
C3737      N3739   1.157   1_655  T
C3738      N3740   1.156       .  T
C3743      C3744   1.415       .  A
C3743      C3748   1.418       .  A
C3744      C3745   1.411       .  A
C3744      C3749   1.452   1_455  S
C3745      C3746   1.417       .  A
C3745      C3752   1.452       .  S
C3746      C3747   1.412       .  A
C3747      C3748   1.410       .  A
C3747      C3750   1.451       .  S
C3748      C3751   1.452       .  S
C3749      N3756   1.157       .  T
C3750      N3755   1.158       .  T
C3751      N3753   1.157   1_565  T
C3752      N3754   1.157       .  T
C3757      C3758   1.413       .  A
C3757      C3762   1.412       .  A
C3758      C3759   1.409       .  A
C3758      C3763   1.453   1_545  S
C3759      C3760   1.410       .  A
C3759      C3766   1.446       .  S
C3760      C3761   1.414       .  A
C3761      C3762   1.415       .  A
C3761      C3764   1.450       .  S
C3762      C3765   1.450       .  S
C3763      N3770   1.157       .  T
C3764      N3769   1.157       .  T
C3765      N3767   1.157       .  T
C3766      N3768   1.155       .  T
C3771      C3772   1.413       .  A
C3771      C3776   1.413       .  A
C3772      C3773   1.406       .  A
C3772      C3777   1.452       .  S
C3773      C3774   1.411       .  A
C3773      C3780   1.452       .  S
C3774      C3775   1.410       .  A
C3775      C3776   1.407       .  A
C3775      C3778   1.452       .  S
C3776      C3779   1.451       .  S
C3777      N3784   1.157       .  T
C3778      N3783   1.157       .  T
C3779      N3781   1.157       .  T
C3780      N3782   1.157       .  T
C3785      C3786   1.419       .  A
C3785      C3790   1.418       .  A
C3786      C3787   1.408       .  A
C3786      C3791   1.454       .  S
C3787      C3788   1.414       .  A
C3787      C3794   1.451       .  S
C3788      C3789   1.419       .  A
C3789      C3790   1.413       .  A
C3789      C3792   1.454       .  S
C3790      C3793   1.450   1_554  S
C3791      N3798   1.157       .  T
C3792      N3797   1.157       .  T
C3793      N3795   1.157       .  T
C3794      N3796   1.158       .  T
C3799      C3800   1.411       .  A
C3799      C3804   1.411       .  A
C3800      C3801   1.409       .  A
C3800      C3805   1.451   1_455  S
C3801      C3802   1.413       .  A
C3801      C3808   1.451       .  S
C3802      C3803   1.412       .  A
C3803      C3804   1.414       .  A
C3803      C3806   1.446       .  S
C3804      C3807   1.450       .  S
C3805      N3812   1.157       .  T
C3806      N3811   1.156       .  T
C3807      N3809   1.157       .  T
C3808      N3810   1.157       .  T
C3813      C3814   1.418       .  A
C3813      C3818   1.424       .  A
C3814      C3815   1.415       .  A
C3814      C3819   1.451       .  S
C3815      C3816   1.416       .  A
C3815      C3822   1.452       .  S
C3816      C3817   1.413       .  A
C3817      C3818   1.414       .  A
C3817      C3820   1.452       .  S
C3818      C3821   1.452       .  S
C3819      N3826   1.157       .  T
C3820      N3825   1.158       .  T
C3821      N3823   1.158   1_545  T
C3822      N3824   1.157       .  T
C3827      C3828   1.418       .  A
C3827      C3832   1.417       .  A
C3828      C3829   1.416       .  A
C3828      C3833   1.451       .  S
C3829      C3830   1.413       .  A
C3829      C3836   1.451       .  S
C3830      C3831   1.416       .  A
C3831      C3832   1.417       .  A
C3831      C3834   1.451       .  S
C3832      C3835   1.451       .  S
C3833      N3840   1.157       .  T
C3834      N3839   1.157       .  T
C3835      N3837   1.157       .  T
C3836      N3838   1.157       .  T
C3841      C3842   1.416       .  A
C3841      C3846   1.417       .  A
C3842      C3843   1.413       .  A
C3842      C3847   1.451       .  S
C3843      C3844   1.411       .  A
C3843      C3850   1.452       .  S
C3844      C3845   1.412       .  A
C3845      C3846   1.413       .  A
C3845      C3848   1.452       .  S
C3846      C3849   1.451   1_554  S
C3847      N3854   1.157   1_565  T
C3848      N3853   1.157       .  T
C3849      N3851   1.157       .  T
C3850      N3852   1.157       .  T
C3855      C3856   1.420       .  A
C3855      C3860   1.421       .  A
C3856      C3857   1.418       .  A
C3856      C3861   1.452       .  S
C3857      C3858   1.418       .  A
C3857      C3864   1.452       .  S
C3858      C3859   1.417       .  A
C3859      C3860   1.419       .  A
C3859      C3862   1.451       .  S
C3860      C3863   1.451       .  S
C3861      N3868   1.158       .  T
C3862      N3867   1.157       .  T
C3863      N3865   1.157       .  T
C3864      N3866   1.157       .  T
C3869      C3870   1.413       .  A
C3869      C3874   1.411       .  A
C3870      C3871   1.414       .  A
C3870      C3875   1.451       .  S
C3871      C3872   1.417       .  A
C3871      C3878   1.451       .  S
C3872      C3873   1.418       .  A
C3873      C3874   1.415       .  A
C3873      C3876   1.451       .  S
C3874      C3877   1.451       .  S
C3875      N3882   1.157       .  T
C3876      N3881   1.157       .  T
C3877      N3879   1.157       .  T
C3878      N3880   1.157       .  T
C3883      C3884   1.420       .  A
C3883      C3888   1.418       .  A
C3884      C3885   1.411       .  A
C3884      C3889   1.454       .  S
C3885      C3886   1.413       .  A
C3885      C3892   1.446       .  S
C3886      C3887   1.418       .  A
C3887      C3888   1.420       .  A
C3887      C3890   1.451       .  S
C3888      C3891   1.450       .  S
C3889      N3896   1.158       .  T
C3890      N3895   1.157       .  T
C3891      N3893   1.157       .  T
C3892      N3894   1.156       .  T
C3897      C3898   1.421       .  A
C3897      C3902   1.416       .  A
C3898      C3899   1.406       .  A
C3898      C3903   1.455       .  S
C3899      C3900   1.420       .  A
C3899      C3906   1.454       .  S
C3900      C3901   1.423       .  A
C3901      C3902   1.421       .  A
C3901      C3904   1.451       .  S
C3902      C3905   1.450       .  S
C3903      N3910   1.157       .  T
C3904      N3909   1.158       .  T
C3905      N3907   1.157       .  T
C3906      N3908   1.158       .  T
C3911      C3912   1.419       .  A
C3911      C3916   1.415       .  A
C3912      C3913   1.407       .  A
C3912      C3917   1.454       .  S
C3913      C3914   1.414       .  A
C3913      C3920   1.454       .  S
C3914      C3915   1.420       .  A
C3915      C3916   1.420       .  A
C3915      C3918   1.449       .  S
C3916      C3919   1.449       .  S
C3917      N3924   1.157       .  T
C3918      N3923   1.157       .  T
C3919      N3921   1.158       .  T
C3920      N3922   1.157       .  T
C3925      C3926   1.420       .  A
C3925      C3930   1.415       .  A
C3926      C3927   1.403       .  A
C3926      C3931   1.454       .  S
C3927      C3928   1.406       .  A
C3927      C3934   1.452       .  S
C3928      C3929   1.414       .  A
C3929      C3930   1.421       .  A
C3929      C3932   1.449       .  S
C3930      C3933   1.448       .  S
C3931      N3938   1.157       .  T
C3932      N3937   1.157       .  T
C3933      N3935   1.157       .  T
C3934      N3936   1.157       .  T
C3939      C3940   1.411       .  A
C3939      C3944   1.420       .  A
C3940      C3941   1.410       .  A
C3940      C3945   1.451       .  S
C3941      C3942   1.418       .  A
C3941      C3948   1.451       .  S
C3942      C3943   1.415       .  A
C3943      C3944   1.408       .  A
C3943      C3946   1.454       .  S
C3944      C3947   1.454       .  S
C3945      N3952   1.157       .  T
C3946      N3951   1.158       .  T
C3947      N3949   1.158       .  T
C3948      N3950   1.157       .  T
C3953      C3954   1.411       .  A
C3953      C3958   1.407       .  A
C3954      C3955   1.420       .  A
C3954      C3959   1.450       .  S
C3955      C3956   1.422       .  A
C3955      C3962   1.450       .  S
C3956      C3957   1.422       .  A
C3957      C3958   1.410       .  A
C3957      C3960   1.453       .  S
C3958      C3961   1.449       .  S
C3959      N3966   1.157       .  T
C3960      N3965   1.158       .  T
C3961      N3963   1.156       .  T
C3962      N3964   1.158       .  T
C3967      C3968   1.412       .  A
C3967      C3972   1.410       .  A
C3968      C3969   1.407       .  A
C3968      C3973   1.451       .  S
C3969      C3970   1.408       .  A
C3969      C3976   1.451       .  S
C3970      C3971   1.410       .  A
C3971      C3972   1.410       .  A
C3971      C3974   1.448       .  S
C3972      C3975   1.450       .  S
C3973      N3980   1.157       .  T
C3974      N3979   1.157       .  T
C3975      N3977   1.157       .  T
C3976      N3978   1.157       .  T
C3981      C3982   1.411       .  A
C3981      C3986   1.418       .  A
C3982      C3983   1.401       .  A
C3982      C3987   1.447       .  S
C3983      C3984   1.410       .  A
C3983      C3990   1.452       .  S
C3984      C3985   1.411       .  A
C3985      C3986   1.413       .  A
C3985      C3988   1.451       .  S
C3986      C3989   1.451       .  S
C3987      N3994   1.157       .  T
C3988      N3993   1.157       .  T
C3989      N3991   1.157       .  T
C3990      N3992   1.158       .  T
C3995      C3996   1.413       .  A
C3995      C4000   1.418       .  A
C3996      C3997   1.414       .  A
C3996      C4001   1.451       .  S
C3997      C3998   1.419       .  A
C3997      C4004   1.452       .  S
C3998      C3999   1.416       .  A
C3999      C4000   1.411       .  A
C3999      C4002   1.453       .  S
C4000      C4003   1.451       .  S
C4001      N4008   1.157       .  T
C4002      N4007   1.158       .  T
C4003      N4005   1.157       .  T
C4004      N4006   1.157       .  T
C4009      C4010   1.405       .  A
C4009      C4014   1.406       .  A
C4010      C4011   1.404       .  A
C4010      C4015   1.453       .  S
C4011      C4012   1.419       .  A
C4011      C4018   1.449       .  S
C4012      C4013   1.415       .  A
C4013      C4014   1.400       .  A
C4013      C4016   1.453       .  S
C4014      C4017   1.452       .  S
C4015      N4022   1.157       .  T
C4016      N4021   1.157       .  T
C4017      N4019   1.157       .  T
C4018      N4020   1.156       .  T
C4023      C4024   1.405       .  A
C4023      C4028   1.408       .  A
C4024      C4025   1.406       .  A
C4024      C4029   1.447       .  S
C4025      C4026   1.422       .  A
C4025      C4032   1.453       .  S
C4026      C4027   1.421       .  A
C4027      C4028   1.416       .  A
C4027      C4030   1.450       .  S
C4028      C4031   1.450       .  S
C4029      N4036   1.155       .  T
C4030      N4035   1.157       .  T
C4031      N4033   1.157       .  T
C4032      N4034   1.158       .  T
C4037      C4038   1.405       .  A
C4037      C4042   1.401       .  A
C4038      C4039   1.412       .  A
C4038      C4043   1.448       .  S
C4039      C4040   1.425       .  A
C4039      C4046   1.451       .  S
C4040      C4041   1.433       .  A
C4041      C4042   1.416       .  A
C4041      C4044   1.451       .  S
C4042      C4045   1.451       .  S
C4043      N4050   1.155       .  T
C4044      N4049   1.158       .  T
C4045      N4047   1.157       .  T
C4046      N4048   1.158       .  T
C4051      C4052   1.420       .  A
C4051      C4056   1.425       .  A
C4052      C4053   1.405       .  A
C4052      C4057   1.448       .  S
C4053      C4054   1.409       .  A
C4053      C4060   1.454       .  S
C4054      C4055   1.412       .  A
C4055      C4056   1.400       .  A
C4055      C4058   1.456       .  S
C4056      C4059   1.456       .  S
C4057      N4064   1.157       .  T
C4058      N4063   1.158       .  T
C4059      N4061   1.158       .  T
C4060      N4062   1.157       .  T
