geometry optimzed in LAMMPS
_audit_creation_date              2020-11-30 
_audit_creation_method            'lammps2cif' 
_symmetry_space_group_name_H-M    'P1' 
_symmetry_Int_Tables_number       1 
_symmetry_cell_setting            triclinic 
loop_ 
_symmetry_equiv_pos_as_xyz 
  x,y,z 
_cell_length_a                    57.07795789 
_cell_length_b                    56.89498307575204 
_cell_length_c                    56.70839373448965 
_cell_angle_alpha                 89.76301768726844 
_cell_angle_beta                  90.12170396723826 
_cell_angle_gamma                 90.0861842901242 
loop_ 
_atom_site_label 
_atom_site_type_symbol 
_atom_site_fract_x 
_atom_site_fract_y 
_atom_site_fract_z 
_atom_site_charge 
O1          O  0.28496248  0.71693712  0.74249061    -0.78300
O2          O  0.28342248  0.78825397  0.74072839    -0.78300
O3          O  0.25725905  0.73095723  0.68950630    -0.78300
O4          O  0.25287199  0.77244130  0.79155128    -0.78200
O5          O  0.28556685  0.75148987  0.70604547    -0.78400
O6          O  0.28299686  0.75350978  0.77675124    -0.78300
O7          O  0.25299744  0.80389972  0.75851005    -0.78300
O8          O  0.25663238  0.69965219  0.72268383    -0.78300
C9          C  0.27775570  0.70016136  0.72970025     1.11400
C10         C  0.27456039  0.80453125  0.75311528     1.11300
C11         C  0.27846025  0.73779703  0.68988611     1.11400
C12         C  0.27432706  0.76658778  0.79252203     1.11300
O13         O  0.23856652  0.73334965  0.79215495    -0.78300
O14         O  0.24147488  0.76945940  0.68777445    -0.78400
O15         O  0.21140040  0.71509703  0.74018512    -0.78300
O16         O  0.20993088  0.78588176  0.73772791    -0.78300
O17         O  0.23942169  0.80235415  0.71895811    -0.78300
O18         O  0.24039631  0.70031322  0.76114212    -0.78300
O19         O  0.20949902  0.75133903  0.77411606    -0.78200
O20         O  0.21195783  0.74995171  0.70338390    -0.78300
Co21       Co  0.26162602  0.72837796  0.76566125     1.51500
Co22       Co  0.26229903  0.77551155  0.71586375     1.51700
Co23       Co  0.23433094  0.72641343  0.71627654     1.51600
Co24       Co  0.23162991  0.77593355  0.76317159     1.51500
O25         O  0.24749476  0.75155871  0.74021982    -1.40200
C26         C  0.21702221  0.73875136  0.79098030     1.11300
C27         C  0.22021728  0.76292660  0.68713097     1.11400
C28         C  0.21924119  0.69950918  0.75422587     1.11400
C29         C  0.21792919  0.80215398  0.72470444     1.11300
O30         O  0.74658646  0.21097334  0.72549331    -0.78300
O31         O  0.75289901  0.20741429  0.79263572    -0.78300
O32         O  0.80600281  0.23729645  0.73887560    -0.78300
O33         O  0.70665804  0.22496806  0.76619605    -0.78200
O34         O  0.79089107  0.20834215  0.76010241    -0.78400
O35         O  0.70003497  0.22497767  0.72757742    -0.78300
O36         O  0.72910210  0.23466847  0.80573188    -0.78300
O37         O  0.77058941  0.23636061  0.70799617    -0.78300
C38         C  0.76086425  0.21617680  0.70907711     1.11400
C39         C  0.73784322  0.21431779  0.80750237     1.11300
C40         C  0.80658852  0.21620080  0.74630011     1.11400
C41         C  0.69367304  0.21948984  0.74826711     1.11300
O42         O  0.70771523  0.26697871  0.74771956    -0.78300
O43         O  0.80496488  0.25274595  0.77988339    -0.78400
O44         O  0.75498371  0.28278900  0.72339082    -0.78300
O45         O  0.74599085  0.27935040  0.79229010    -0.78300
O46         O  0.76874902  0.25271644  0.80964499    -0.78300
O47         O  0.73174304  0.25568650  0.70921339    -0.78300
O48         O  0.69885710  0.26699842  0.78585051    -0.78200
O49         O  0.79112185  0.28163365  0.75753026    -0.78300
Co50       Co  0.72869096  0.23742765  0.73916272     1.51500
Co51       Co  0.77774589  0.23046955  0.78372312     1.51700
Co52       Co  0.77894229  0.25940083  0.73367020     1.51600
Co53       Co  0.72800844  0.25386126  0.77628218     1.51500
O54         O  0.75704338  0.24536395  0.75841232    -1.40200
C55         C  0.69367229  0.27250996  0.76475272     1.11300
C56         C  0.80597560  0.27379663  0.77225966     1.11400
C57         C  0.74045248  0.27607255  0.70791884     1.11400
C58         C  0.75942594  0.27303612  0.80919058     1.11300
O59         O  0.72802379  0.74293018  0.20780170    -0.78300
O60         O  0.79426666  0.75878096  0.22487892    -0.78300
O61         O  0.72776057  0.80060700  0.24591272    -0.78300
O62         O  0.76977721  0.68762197  0.23922141    -0.78200
O63         O  0.75821937  0.79197110  0.22379894    -0.78400
O64         O  0.73630979  0.69281133  0.21876083    -0.78300
O65         O  0.77287984  0.72819685  0.21638755    -0.78300
O66         O  0.70305661  0.76353621  0.22961048    -0.78300
C67         C  0.70956958  0.75554327  0.20972907     1.11400
C68         C  0.79103579  0.74041166  0.21298090     1.11300
C69         C  0.74130409  0.80527013  0.22889176     1.11400
C70         C  0.75408958  0.67990060  0.22465768     1.11300
O71         O  0.73183374  0.70036031  0.26385520    -0.78300
O72         O  0.76308547  0.79723644  0.27404162    -0.78400
O73         O  0.70400728  0.74199417  0.27586070    -0.78300
O74         O  0.79866989  0.72559179  0.25917200    -0.78300
O75         O  0.79451882  0.76092262  0.27461527    -0.78300
O76         O  0.70068414  0.72153524  0.24319983    -0.78300
O77         O  0.76124052  0.71115441  0.28333812    -0.78200
O78         O  0.73223667  0.78052340  0.29123636    -0.78300
Co79       Co  0.73513962  0.72302492  0.23608479     1.51500
Co80       Co  0.77537458  0.77544418  0.24929984     1.51700
Co81       Co  0.71866158  0.76994282  0.26072831     1.51600
Co82       Co  0.76507878  0.72054913  0.24974743     1.51500
O83         O  0.74871694  0.75159734  0.25421628    -1.40200
C84         C  0.74379045  0.69823461  0.28219229     1.11300
C85         C  0.74806971  0.79631387  0.29054585     1.11400
C86         C  0.69234616  0.72814043  0.26284306     1.11400
C87         C  0.80629142  0.74232979  0.27181231     1.11300
C88         C  0.50435336  0.01432505  0.98093118     0.04200
C89         C  0.52123235  0.01431644  0.99918738     0.04200
C90         C  0.52126263  0.99602622  0.01612402     0.04200
C91         C  0.50453036  0.97777545  0.01482001     0.04200
C92         C  0.48738723  0.97810462  0.99687504     0.04200
C93         C  0.48729171  0.99634957  0.97993468     0.04200
C94         C  0.67819074  0.97961092  0.18579266     0.05000
C95         C  0.66083676  0.97797097  0.16835670    -0.11200
C96         C  0.64771004  0.99776342  0.16202992     0.02500
C97         C  0.65193426  0.01928803  0.17309578    -0.09700
C98         C  0.66925312  0.02113107  0.19053060     0.05000
C99         C  0.68245000  0.00124459  0.19692362    -0.09100
H100        H  0.65757075  0.96131262  0.15970170     0.10600
H101        H  0.64183504  0.03464522  0.16803611     0.08100
H102        H  0.69591506  0.00260202  0.21035115     0.08000
C103        C  0.67443679  0.18754155  0.02783802     0.05000
C104        C  0.68626110  0.19170326  0.00647902    -0.11200
C105        C  0.68019375  0.17891752  0.98619556     0.02500
C106        C  0.66238972  0.16197577  0.98736831    -0.09700
C107        C  0.65059448  0.15769215  0.00858143     0.05000
C108        C  0.65661366  0.17050114  0.02880121    -0.09100
H109        H  0.70002140  0.20483617  0.00563249     0.10600
H110        H  0.65769665  0.15208916  0.97171395     0.08100
H111        H  0.64749038  0.16719222  0.04524181     0.08000
C112        C  0.32393616  0.97997778  0.81591035     0.05000
C113        C  0.31413977  0.00190792  0.80965597    -0.11200
C114        C  0.32165734  0.02258587  0.82109403     0.02500
C115        C  0.33896426  0.02116714  0.83862781    -0.09700
C116        C  0.34870182  0.99944208  0.84489708     0.05000
C117        C  0.34119480  0.97894135  0.83354234    -0.09100
H118        H  0.30074309  0.00285963  0.79610166     0.10600
H119        H  0.34480094  0.03700179  0.84749377     0.08100
H120        H  0.34876518  0.96214125  0.83847204     0.08000
C121        C  0.51904176  0.17614648  0.81419335     0.05000
C122        C  0.49732830  0.18677728  0.80913864    -0.11200
C123        C  0.47710493  0.17975261  0.82149169     0.02500
C124        C  0.47869934  0.16214805  0.83877216    -0.09700
C125        C  0.50024957  0.15154643  0.84383181     0.05000
C126        C  0.52036662  0.15854524  0.83154614    -0.09100
H127        H  0.49618599  0.20038906  0.79575365     0.10600
H128        H  0.46313832  0.15669744  0.84831661     0.08100
H129        H  0.53706095  0.15032091  0.83551603     0.08000
C130        C  0.53330237  0.80078544  0.16159146     0.05000
C131        C  0.51270469  0.79211024  0.17247800    -0.11200
C132        C  0.49087934  0.80322291  0.16835725     0.02500
C133        C  0.48993590  0.82292537  0.15339725    -0.09700
C134        C  0.51026272  0.83153187  0.14254287     0.05000
C135        C  0.53180445  0.82046955  0.14667302    -0.09100
H136        H  0.51364662  0.77689749  0.18400507     0.10600
H137        H  0.47328181  0.83153058  0.15008474     0.08100
H138        H  0.54748977  0.82721377  0.13821494     0.08000
C139        C  0.32060546  0.81928932  0.97155400     0.05000
C140        C  0.30975540  0.81354752  0.99316438    -0.11200
C141        C  0.31671199  0.82498903  0.01407486     0.02500
C142        C  0.33441715  0.84207856  0.01316991    -0.09700
C143        C  0.34522010  0.84777875  0.99175176     0.05000
C144        C  0.33831480  0.83639695  0.97103081    -0.09100
H145        H  0.29606748  0.80032593  0.99370398     0.10600
H146        H  0.33987505  0.85089861  0.02919806     0.08100
H147        H  0.34674327  0.84085773  0.95446861     0.08000
C148        C  0.98277308  0.47769086  0.00792640     0.04200
C149        C  0.99919213  0.47939686  0.98943312     0.04200
C150        C  0.01596464  0.49766721  0.98920433     0.04200
C151        C  0.01641129  0.51430233  0.00756812     0.04200
C152        C  0.00015674  0.51257916  0.02620520     0.04200
C153        C  0.98340851  0.49425988  0.02637731     0.04200
C154        C  0.17420537  0.67818573  0.96744280     0.05000
C155        C  0.15630839  0.66145003  0.96998249    -0.11200
C156        C  0.15175371  0.65123928  0.99201890     0.02500
C157        C  0.16516324  0.65773372  0.01164955    -0.09700
C158        C  0.18311305  0.67445071  0.00942891     0.05000
C159        C  0.18766710  0.68470845  0.98723988    -0.09100
H160        H  0.14589988  0.65638250  0.95479893     0.10600
H161        H  0.16156096  0.64983139  0.02870664     0.08100
H162        H  0.20147413  0.69768202  0.98541478     0.08000
C163        C  0.17144429  0.52423678  0.81868990     0.05000
C164        C  0.15397276  0.52465536  0.83605207    -0.11200
C165        C  0.14669314  0.50382557  0.84709178     0.02500
C166        C  0.15688680  0.48238185  0.84076064    -0.09700
C167        C  0.17435511  0.48158551  0.82342198     0.05000
C168        C  0.18167634  0.50260499  0.81236736    -0.09100
H169        H  0.14605374  0.54123461  0.84101613     0.10600
H170        H  0.15122446  0.46627677  0.84936427     0.08100
H171        H  0.19519094  0.50213096  0.79896812     0.08000
C172        C  0.01346279  0.67701116  0.18816172     0.05000
C173        C  0.99172440  0.68742513  0.19413293    -0.11200
C174        C  0.97073377  0.67967861  0.18319094     0.02500
C175        C  0.97178911  0.66159992  0.16645380    -0.09700
C176        C  0.99324973  0.65131390  0.16051232     0.05000
C177        C  0.01391149  0.65902695  0.17133711    -0.09100
H178        H  0.99115654  0.70138230  0.20705042     0.10600
H179        H  0.95584242  0.65555558  0.15794912     0.08100
H180        H  0.03048062  0.65098527  0.16659919     0.08000
C181        C  0.82311483  0.46339643  0.18773913     0.05000
C182        C  0.80982458  0.48316791  0.19381293    -0.11200
C183        C  0.81341430  0.50452303  0.18190232     0.02500
C184        C  0.83023686  0.50605479  0.16399606    -0.09700
C185        C  0.84347951  0.48629947  0.15799304     0.05000
C186        C  0.83987991  0.46499391  0.16982413    -0.09100
H187        H  0.79690126  0.48197762  0.20774056     0.10600
H188        H  0.83315632  0.52261404  0.15491711     0.08100
H189        H  0.85021790  0.44971799  0.16520700     0.08000
C190        C  0.02557455  0.31733073  0.82787419     0.05000
C191        C  0.00442475  0.31024536  0.81723718    -0.11200
C192        C  0.98336841  0.32157151  0.82322078     0.02500
C193        C  0.98359916  0.33980958  0.83972674    -0.09700
C194        C  0.00463153  0.34678526  0.85026950     0.05000
C195        C  0.02555839  0.33557382  0.84436636    -0.09100
H196        H  0.00435311  0.29611081  0.80448700     0.10600
H197        H  0.96738823  0.34849835  0.84445746     0.08100
H198        H  0.04183171  0.34103304  0.85262255     0.08000
C199        C  0.82671948  0.30688783  0.02833360     0.05000
C200        C  0.84310195  0.32535854  0.02855033    -0.11200
C201        C  0.84774666  0.33829607  0.00794044     0.02500
C202        C  0.83588408  0.33275765  0.98700092    -0.09700
C203        C  0.81947221  0.31436362  0.98643002     0.05000
C204        C  0.81490471  0.30141158  0.00717594    -0.09100
H205        H  0.85227137  0.32963635  0.04474973     0.10600
H206        H  0.83952231  0.34272876  0.97105909     0.08100
H207        H  0.80226707  0.28716819  0.00685567     0.08000
C208        C  0.50551864  0.48288748  0.51754667     0.04200
C209        C  0.48851243  0.50087682  0.51658207     0.04200
C210        C  0.48912933  0.51782637  0.49832569     0.04200
C211        C  0.50690118  0.51680333  0.48107480     0.04200
C212        C  0.52391612  0.49881676  0.48195590     0.04200
C213        C  0.52310915  0.48182212  0.50013763     0.04200
C214        C  0.52359368  0.32498017  0.68938237     0.05000
C215        C  0.52564106  0.34162668  0.67111551    -0.11200
C216        C  0.50573905  0.34914008  0.65863096     0.02500
C217        C  0.48367617  0.33999137  0.66443155    -0.09700
C218        C  0.48129391  0.32333801  0.68256862     0.05000
C219        C  0.50131763  0.31585329  0.69510113    -0.09100
H220        H  0.54271189  0.34870784  0.66660200     0.10600
H221        H  0.46830179  0.34579612  0.65472907     0.08100
H222        H  0.49959399  0.30295349  0.70911850     0.08000
C223        C  0.32071277  0.67542068  0.47029824     0.05000
C224        C  0.33937966  0.65932494  0.46991863    -0.11200
C225        C  0.35189835  0.65406861  0.49061765     0.02500
C226        C  0.34577309  0.66500830  0.51182727    -0.09700
C227        C  0.32717600  0.68108256  0.51263895     0.05000
C228        C  0.31462831  0.68630180  0.49177972    -0.09100
H229        H  0.34408237  0.65078629  0.45353511     0.10600
H230        H  0.35539747  0.66082491  0.52783388     0.08100
H231        H  0.30018399  0.69863512  0.49228025     0.08000
C232        C  0.69138650  0.51930043  0.32553669     0.05000
C233        C  0.67422654  0.51768692  0.34315411    -0.11200
C234        C  0.66378366  0.49605416  0.34864538     0.02500
C235        C  0.67048832  0.47578665  0.33649267    -0.09700
C236        C  0.68761759  0.47689199  0.31881250     0.05000
C237        C  0.69811450  0.49877417  0.31329175    -0.09100
H238        H  0.66892365  0.53335093  0.35259422     0.10600
H239        H  0.66232228  0.45907913  0.34080568     0.08100
H240        H  0.71135430  0.49981556  0.29964665     0.08000
C241        C  0.47279946  0.66523225  0.30860902     0.05000
C242        C  0.47556311  0.65010907  0.32796358    -0.11200
C243        C  0.49757988  0.64719042  0.33843893     0.02500
C244        C  0.51695885  0.65941111  0.32957200    -0.09700
C245        C  0.51444122  0.67451440  0.31014106     0.05000
C246        C  0.49228911  0.67749511  0.29963793    -0.09100
H247        H  0.46057855  0.64056481  0.33484440     0.10600
H248        H  0.53404620  0.65696249  0.33761947     0.08100
H249        H  0.49026318  0.68911797  0.28458157     0.08000
C250        C  0.32183199  0.52273233  0.67503046     0.05000
C251        C  0.31075892  0.50119731  0.68052814    -0.11200
C252        C  0.31781676  0.48033988  0.66916322     0.02500
C253        C  0.33584348  0.48124068  0.65241083    -0.09700
C254        C  0.34682363  0.50260513  0.64698656     0.05000
C255        C  0.33980654  0.52323367  0.65825369    -0.09100
H256        H  0.29688532  0.50066273  0.69353313     0.10600
H257        H  0.34141313  0.46528249  0.64367169     0.08100
H258        H  0.34841008  0.53972374  0.65399722     0.08000
C259        C  0.68159116  0.31647721  0.53075598     0.05000
C260        C  0.68664176  0.30420417  0.50986331    -0.11200
C261        C  0.67475453  0.30999054  0.48884977     0.02500
C262        C  0.65791968  0.32787525  0.48887786    -0.09700
C263        C  0.65288436  0.34000763  0.50964273     0.05000
C264        C  0.66469512  0.33431966  0.53051791    -0.09100
H265        H  0.69974046  0.29043387  0.50992632     0.10600
H266        H  0.64882042  0.33244896  0.47269012     0.08100
H267        H  0.66076381  0.34380891  0.54657630     0.08000
C268        C  0.97878604  0.99084265  0.48511261     0.04200
C269        C  0.99791620  0.97540210  0.48238536     0.04200
C270        C  0.01736294  0.97697151  0.49773754     0.04200
C271        C  0.01743280  0.99374270  0.51602007     0.04200
C272        C  0.99827469  0.00913711  0.51882947     0.04200
C273        C  0.97901567  0.00774073  0.50326659     0.04200
C274        C  0.98196329  0.16629444  0.68781471     0.05000
C275        C  0.00313231  0.17776213  0.69356509    -0.11200
C276        C  0.02405541  0.17166811  0.68191108     0.02500
C277        C  0.02362908  0.15414758  0.66457388    -0.09700
C278        C  0.00263469  0.14272101  0.65881667     0.05000
C279        C  0.98189592  0.14880011  0.67045303    -0.09100
H280        H  0.00331008  0.19133595  0.70693052     0.10600
H281        H  0.03966531  0.14941806  0.65551531     0.08100
H282        H  0.96564465  0.13997282  0.66590596     0.08000
C283        C  0.18385956  0.02536274  0.67394167     0.05000
C284        C  0.16762731  0.02520695  0.65535851    -0.11200
C285        C  0.15723451  0.00412602  0.64822083     0.02500
C286        C  0.16300999  0.98309335  0.65960512    -0.09700
C287        C  0.17916378  0.98292953  0.67820738     0.05000
C288        C  0.18967618  0.00414126  0.68545647    -0.09100
H289        H  0.16302507  0.04149924  0.64650481     0.10600
H290        H  0.15487807  0.96680005  0.65398736     0.08100
H291        H  0.20221699  0.00413308  0.69983732     0.08000
C292        C  0.18497746  0.82250770  0.50765686     0.05000
C293        C  0.16746491  0.83967608  0.50615945    -0.11200
C294        C  0.16216602  0.85045406  0.48457267     0.02500
C295        C  0.17444471  0.84399899  0.46419525    -0.09700
C296        C  0.19211028  0.82683658  0.46533285     0.05000
C297        C  0.19735258  0.81606316  0.48717721    -0.09100
H298        H  0.15792308  0.84470489  0.52189543     0.10600
H299        H  0.17029532  0.85235905  0.44748279     0.08100
H300        H  0.21094442  0.80280668  0.48823107     0.08000
C301        C  0.80702503  0.15825306  0.53291130     0.05000
C302        C  0.82387294  0.14036594  0.53223112    -0.11200
C303        C  0.83399194  0.13383289  0.51078217     0.02500
C304        C  0.82724758  0.14513163  0.48990556    -0.09700
C305        C  0.81046697  0.16306333  0.49033563     0.05000
C306        C  0.80028865  0.16966357  0.51189349    -0.09100
H307        H  0.82928357  0.13170053  0.54842004     0.10600
H308        H  0.83524141  0.14012418  0.47333317     0.08100
H309        H  0.78740608  0.18363343  0.51233450     0.08000
C310        C  0.80331201  0.97121836  0.33425326     0.05000
C311        C  0.79824235  0.99268134  0.32281300    -0.11200
C312        C  0.81129195  0.01304725  0.32819605     0.02500
C313        C  0.82929300  0.01178800  0.34503076    -0.09700
C314        C  0.83439205  0.99050509  0.35642877     0.05000
C315        C  0.82142557  0.97029845  0.35100885    -0.09100
H316        H  0.78429395  0.99352182  0.30982465     0.10600
H317        H  0.83936361  0.02740888  0.34926811     0.08100
H318        H  0.82543216  0.95383212  0.35984983     0.08000
C319        C  0.97646026  0.80487910  0.32620604     0.05000
C320        C  0.99773377  0.80047500  0.31469263    -0.11200
C321        C  0.01761877  0.81397542  0.32002745     0.02500
C322        C  0.01618405  0.83189048  0.33685658    -0.09700
C323        C  0.99497530  0.83632428  0.34840464     0.05000
C324        C  0.97512846  0.82279699  0.34307404    -0.09100
H325        H  0.99879789  0.78665034  0.30164119     0.10600
H326        H  0.03155383  0.84231698  0.34100040     0.08100
H327        H  0.95869054  0.82624662  0.35196139     0.08000
O328        O  0.25148149  0.21798799  0.71457959    -0.78300
O329        O  0.24975487  0.28697080  0.71247110    -0.78300
O330        O  0.19977165  0.23294382  0.74606852    -0.78300
O331        O  0.30273249  0.27317627  0.74312808    -0.78200
O332        O  0.21469651  0.25104262  0.71529576    -0.78400
O333        O  0.28671445  0.25352604  0.71401843    -0.78300
O334        O  0.26989378  0.30446147  0.74065627    -0.78300
O335        O  0.23248890  0.20171714  0.74431496    -0.78300
C336        C  0.23837209  0.20187168  0.72269579     1.11400
C337        C  0.26298253  0.30357227  0.71932457     1.11300
C338        C  0.19892017  0.23814211  0.72432137     1.11400
C339        C  0.30293241  0.26663265  0.72178964     1.11300
O340        O  0.30252200  0.23473972  0.75940686    -0.78300
O341        O  0.20060808  0.27204098  0.76009925    -0.78400
O342        O  0.25326982  0.21795838  0.78862037    -0.78300
O343        O  0.25080598  0.29032438  0.78647720    -0.78300
O344        O  0.23143579  0.30508783  0.75642346    -0.78300
O345        O  0.27144236  0.20168009  0.75883925    -0.78300
O346        O  0.28620607  0.25507745  0.78804805    -0.78200
O347        O  0.21822844  0.25327743  0.78925661    -0.78300
Co348      Co  0.27568226  0.22935230  0.73681748     1.51500
Co349      Co  0.22651085  0.27640421  0.73622726     1.51700
Co350      Co  0.22828412  0.22888020  0.76679891     1.51600
Co351      Co  0.27507386  0.27837860  0.76451804     1.51500
O352        O  0.25140584  0.25326594  0.75105703    -1.40200
C353        C  0.30209363  0.24133374  0.78079135     1.11300
C354        C  0.20180202  0.26627409  0.78176385     1.11400
C355        C  0.26581470  0.20156652  0.78045945     1.11400
C356        C  0.23751862  0.30602380  0.77790295     1.11300
O357        O  0.73505688  0.19703889  0.23445591    -0.78300
O358        O  0.74628562  0.29440283  0.27674531    -0.78300
O359        O  0.71171293  0.24484322  0.29527097    -0.78300
O360        O  0.73208193  0.27615524  0.20575444    -0.78200
O361        O  0.74197178  0.26300936  0.31163419    -0.78400
O362        O  0.72916870  0.23752960  0.21177579    -0.78300
O363        O  0.71896324  0.28057119  0.25261708    -0.78300
O364        O  0.70866480  0.21290590  0.25738181    -0.78300
C365        C  0.71440429  0.19747546  0.24245960     1.11400
C366        C  0.72639845  0.29636835  0.26667975     1.11300
C367        C  0.72030012  0.25774832  0.31130961     1.11400
C368        C  0.72465589  0.25616275  0.19930365     1.11300
O369        O  0.76942042  0.21368181  0.20497483    -0.78300
O370        O  0.78444289  0.23947036  0.29791214    -0.78400
O371        O  0.75189245  0.19147412  0.27455798    -0.78300
O372        O  0.76522664  0.29030543  0.23767983    -0.78300
O373        O  0.79009858  0.27307575  0.26165565    -0.78300
O374        O  0.78026561  0.20676608  0.25252269    -0.78300
O375        O  0.77177013  0.25179823  0.21313566    -0.78200
O376        O  0.75308547  0.22077928  0.31118094    -0.78300
Co377      Co  0.75659461  0.22467496  0.23382545     1.51500
Co378      Co  0.76543753  0.26579896  0.28529953     1.51700
Co379      Co  0.73168434  0.21925309  0.28299351     1.51600
Co380      Co  0.74334854  0.26329607  0.23446934     1.51500
O381        O  0.74920392  0.24313032  0.26278973    -1.40200
C382        C  0.77686385  0.23407463  0.19979556     1.11300
C383        C  0.77471402  0.22590145  0.31274259     1.11400
C384        C  0.77252005  0.19054520  0.26602861     1.11400
C385        C  0.78536464  0.28914000  0.24690501     1.11300
O386        O  0.28235758  0.71287827  0.24514319    -0.78300
O387        O  0.21282164  0.71217992  0.24368895    -0.78300
O388        O  0.25782279  0.72609067  0.28523336    -0.78300
O389        O  0.23055457  0.74321635  0.18744094    -0.78200
O390        O  0.21977126  0.71915421  0.29188121    -0.78400
O391        O  0.25724479  0.71734989  0.20005953    -0.78300
O392        O  0.19583528  0.73856837  0.22040968    -0.78300
O393        O  0.30155128  0.73481607  0.27141565    -0.78300
C394        C  0.29915406  0.71535957  0.26060525     1.11400
C395        C  0.19605158  0.71838341  0.23006338     1.11300
C396        C  0.24122787  0.71663258  0.29781100     1.11400
C397        C  0.24220226  0.72426247  0.18495225     1.11300
O398        O  0.26986960  0.76457920  0.19631806    -0.78300
O399        O  0.23482395  0.76375784  0.28666886    -0.78400
O400        O  0.29660516  0.76485193  0.23579973    -0.78300
O401        O  0.20596734  0.78345107  0.23964306    -0.78300
O402        O  0.19628925  0.75419906  0.26383551    -0.78300
O403        O  0.30366289  0.73624792  0.21017124    -0.78300
O404        O  0.24170867  0.78915047  0.20558165    -0.78200
O405        O  0.27135611  0.77386551  0.27943183    -0.78300
Co406      Co  0.27250726  0.73981378  0.22191892     1.51500
Co407      Co  0.22676584  0.73704035  0.26437970     1.51700
Co408      Co  0.27356849  0.74647941  0.25811839     1.51600
Co409      Co  0.22024723  0.76334224  0.21480396     1.51500
O410        O  0.24371189  0.75121078  0.23879393    -1.40200
C411        C  0.25920865  0.78380623  0.19312972     1.11300
C412        C  0.25271018  0.77617527  0.29125887     1.11400
C413        C  0.31062802  0.75476778  0.22076415     1.11400
C414        C  0.19249625  0.77448604  0.25514408     1.11300
C415        C  0.12799384  0.79658903  0.27453413     0.18900
C416        C  0.11060034  0.77986543  0.26954051    -0.10200
C417        C  0.08766448  0.78316828  0.27756135    -0.11100
C418        C  0.08199294  0.80321898  0.29062161     0.20500
C419        C  0.09932019  0.82005180  0.29537397    -0.13100
C420        C  0.12225425  0.81674244  0.28736842    -0.11400
C421        C  0.05866309  0.80630219  0.29980068     0.01400
C422        C  0.03964151  0.80944254  0.30850115    -0.31400
C423        C  0.15185142  0.79238041  0.26739729     0.02800
C424        C  0.17127348  0.78624558  0.26174962    -0.33100
H425        H  0.11484724  0.76414246  0.25973215     0.13900
H426        H  0.07445248  0.76998164  0.27382630     0.13700
H427        H  0.09516333  0.83558311  0.30551333     0.13500
H428        H  0.13555482  0.82972573  0.29145434     0.12600
C429        C  0.79602694  0.12539735  0.28296009     0.18900
C430        C  0.81677281  0.11850635  0.29435898    -0.10200
C431        C  0.81951346  0.09527028  0.30241236    -0.11100
C432        C  0.80153337  0.07868541  0.29920102     0.20500
C433        C  0.78091218  0.08553373  0.28759775    -0.13100
C434        C  0.77818013  0.10872498  0.27954255    -0.11400
C435        C  0.80400547  0.05490679  0.30831236     0.01400
C436        C  0.80657591  0.03542458  0.31672634    -0.31400
C437        C  0.79225886  0.14967503  0.27581232     0.02800
C438        C  0.78578645  0.16934506  0.27059910    -0.33100
H439        H  0.83067606  0.13113208  0.29730202     0.13900
H440        H  0.83554337  0.09031763  0.31138581     0.13700
H441        H  0.76682646  0.07302735  0.28500685     0.13500
H442        H  0.76197906  0.11374173  0.27092493     0.12600
C443        C  0.79606073  0.20422457  0.37710471     0.18900
C444        C  0.78703177  0.18242648  0.38430155    -0.10200
C445        C  0.78852043  0.17545204  0.40795654    -0.11100
C446        C  0.79896799  0.19025442  0.42465912     0.20500
C447        C  0.80800883  0.21207866  0.41749160    -0.13100
C448        C  0.80649735  0.21907557  0.39379574    -0.11400
C449        C  0.80122089  0.18253561  0.44886620     0.01400
C450        C  0.80436564  0.17460752  0.46843278    -0.31400
C451        C  0.79298582  0.21186424  0.35297507     0.02800
C452        C  0.78705871  0.21818053  0.33349046    -0.33100
H453        H  0.77866590  0.17090397  0.37166210     0.13900
H454        H  0.78155682  0.15850529  0.41320999     0.13700
H455        H  0.81622385  0.22364640  0.43018410     0.13500
H456        H  0.81328594  0.23609082  0.38854257     0.12600
C457        C  0.24084179  0.80325721  0.35595058     0.18900
C458        C  0.23615902  0.82631240  0.36325122    -0.10200
C459        C  0.22781244  0.83066424  0.38614032    -0.11100
C460        C  0.22400940  0.81201235  0.40201432     0.20500
C461        C  0.22908240  0.78901062  0.39483507    -0.13100
C462        C  0.23741224  0.78466888  0.37197596    -0.11400
C463        C  0.21399053  0.81640046  0.42517199     0.01400
C464        C  0.20462823  0.82057524  0.44392701    -0.31400
C465        C  0.24778464  0.79820915  0.33178898     0.02800
C466        C  0.25168596  0.79075515  0.31212347    -0.33100
H467        H  0.23854909  0.84089633  0.35113292     0.13900
H468        H  0.22394764  0.84852211  0.39130914     0.13700
H469        H  0.22621407  0.77434741  0.40676499     0.13500
H470        H  0.24074816  0.76677849  0.36662954     0.12600
C471        C  0.20765509  0.09164134  0.68804038     0.18900
C472        C  0.23062287  0.09747308  0.69460260    -0.10200
C473        C  0.23690512  0.12102291  0.69815156    -0.11100
C474        C  0.22030494  0.13895078  0.69508394     0.20500
C475        C  0.19739713  0.13314587  0.68827410    -0.13100
C476        C  0.19111808  0.10959277  0.68471384    -0.11400
C477        C  0.22638463  0.16295814  0.70075711     0.01400
C478        C  0.23178248  0.18196816  0.70855184    -0.31400
C479        C  0.20094539  0.06734659  0.68467006     0.02800
C480        C  0.19409906  0.04758250  0.68082369    -0.33100
H481        H  0.24359709  0.08382749  0.69720090     0.13900
H482        H  0.25459542  0.12521450  0.70365975     0.13700
H483        H  0.18431413  0.14676123  0.68608483     0.13500
H484        H  0.17331948  0.10536478  0.67960197     0.12600
C485        C  0.13586596  0.21595813  0.69939754     0.18900
C486        C  0.11682418  0.23103663  0.70329985    -0.10200
C487        C  0.09375243  0.22298775  0.70026746    -0.11100
C488        C  0.08944081  0.19972366  0.69337144     0.20500
C489        C  0.10848420  0.18468643  0.68929959    -0.13100
C490        C  0.13156180  0.19273312  0.69233890    -0.11400
C491        C  0.06560602  0.19119791  0.69049977     0.01400
C492        C  0.04617310  0.18308500  0.68737273    -0.31400
C493        C  0.15958521  0.22391235  0.70421619     0.02800
C494        C  0.17858893  0.23061404  0.71108856    -0.33100
H495        H  0.11979684  0.24894454  0.70899804     0.13900
H496        H  0.07930305  0.23484332  0.70348819     0.13700
H497        H  0.10549502  0.16666926  0.68396114     0.13500
H498        H  0.14600404  0.18076879  0.68948388     0.12600
C499        C  0.99404879  0.88857748  0.39769934     0.18900
C500        C  0.97469864  0.90338942  0.40084346    -0.10200
C501        C  0.97554929  0.92132363  0.41767023    -0.11100
C502        C  0.99573606  0.92454828  0.43140745     0.20500
C503        C  0.01508926  0.90980382  0.42817399    -0.13100
C504        C  0.01422239  0.89185325  0.41141805    -0.11400
C505        C  0.99660808  0.94277447  0.44896570     0.01400
C506        C  0.99738829  0.95771763  0.46399522    -0.31400
C507        C  0.99340854  0.87017614  0.38029915     0.02800
C508        C  0.99370742  0.85473309  0.36576314    -0.33100
H509        H  0.95902482  0.90108484  0.39031142     0.13900
H510        H  0.96048547  0.93267204  0.41996109     0.13700
H511        H  0.03080405  0.91222077  0.43851992     0.13500
H512        H  0.02934544  0.88055315  0.40911339     0.12600
C513        C  0.92344344  0.98890255  0.43895852     0.18900
C514        C  0.91279752  0.01008338  0.43224194    -0.10200
C515        C  0.89464124  0.01009260  0.41561244    -0.11100
C516        C  0.88700604  0.98892404  0.40560510     0.20500
C517        C  0.89753792  0.96771897  0.41247070    -0.13100
C518        C  0.91567955  0.96770941  0.42912729    -0.11400
C519        C  0.86845456  0.98901993  0.38827368     0.01400
C520        C  0.85293685  0.98947516  0.37375602    -0.31400
C521        C  0.94261300  0.98901877  0.45553507     0.02800
C522        C  0.95895323  0.98956897  0.46906449    -0.33100
H523        H  0.91862301  0.02657946  0.43975211     0.13900
H524        H  0.88662479  0.02660548  0.41048465     0.13700
H525        H  0.89177599  0.95122830  0.40490432     0.13500
H526        H  0.92369803  0.95121120  0.43426662     0.12600
C527        C  0.88653936  0.08529024  0.50894615     0.18900
C528        C  0.90960546  0.09339625  0.51138417    -0.10200
C529        C  0.92827912  0.07753813  0.51081010    -0.11100
C530        C  0.92397722  0.05349886  0.50776745     0.20500
C531        C  0.90091814  0.04537181  0.50524349    -0.13100
C532        C  0.88222681  0.06124451  0.50585427    -0.11400
C533        C  0.94324844  0.03726843  0.50692863     0.01400
C534        C  0.95950670  0.02383995  0.50568312    -0.31400
C535        C  0.86740263  0.10171042  0.50963299     0.02800
C536        C  0.85187891  0.11604002  0.51023273    -0.33100
H537        H  0.91314277  0.11195726  0.51373626     0.13900
H538        H  0.94604695  0.08400815  0.51270254     0.13700
H539        H  0.89741698  0.02682806  0.50278005     0.13500
H540        H  0.86445138  0.05478664  0.50390785     0.12600
C541        C  0.00113649  0.09233871  0.60742694     0.18900
C542        C  0.98017535  0.08044414  0.60247366    -0.10200
C543        C  0.97942155  0.06345427  0.58467671    -0.11100
C544        C  0.99963656  0.05824861  0.57171083     0.20500
C545        C  0.02059921  0.07011908  0.57668812    -0.13100
C546        C  0.02135790  0.08709570  0.59448791    -0.11400
C547        C  0.99886495  0.04088332  0.55323279     0.01400
C548        C  0.99845581  0.02645898  0.53764997    -0.31400
C549        C  0.00185471  0.10999081  0.62564074     0.02800
C550        C  0.00230977  0.12485358  0.64080120    -0.33100
H551        H  0.96440906  0.08433937  0.61232854     0.13900
H552        H  0.96310627  0.05444248  0.58099188     0.13700
H553        H  0.03634279  0.06630759  0.56675654     0.13500
H554        H  0.03765456  0.09615768  0.59810996     0.12600
C555        C  0.10751097  0.00155044  0.59659509     0.18900
C556        C  0.08861434  0.01720722  0.59713525    -0.10200
C557        C  0.07070870  0.01544962  0.58039466    -0.11100
C558        C  0.07164138  0.99803704  0.56303744     0.20500
C559        C  0.09052983  0.98235326  0.56247931    -0.13100
C560        C  0.10844728  0.98410634  0.57924581    -0.11400
C561        C  0.05307562  0.99621424  0.54599853     0.01400
C562        C  0.03709663  0.99500739  0.53215247    -0.31400
C563        C  0.12561211  0.00307797  0.61417655     0.02800
C564        C  0.14029352  0.00396287  0.62943388    -0.33100
H565        H  0.08766880  0.03068378  0.61055674     0.13900
H566        H  0.05611689  0.02756956  0.58103616     0.13700
H567        H  0.09134558  0.96875915  0.54918114     0.13500
H568        H  0.12293461  0.97183475  0.57875697     0.12600
C569        C  0.10988418  0.89960250  0.48585139     0.18900
C570        C  0.08734007  0.89362071  0.47807591    -0.10200
C571        C  0.06888617  0.90961207  0.48035828    -0.11100
C572        C  0.07284329  0.93178060  0.49028735     0.20500
C573        C  0.09540174  0.93783059  0.49803075    -0.13100
C574        C  0.11385869  0.92176496  0.49586755    -0.11400
C575        C  0.05365023  0.94806706  0.49275473     0.01400
C576        C  0.03722613  0.96125794  0.49487843    -0.31400
C577        C  0.12868770  0.88273319  0.48417427     0.02800
C578        C  0.14408428  0.86817953  0.48361944    -0.33100
H579        H  0.08397238  0.87650291  0.47044969     0.13900
H580        H  0.05151612  0.90460558  0.47460249     0.13700
H581        H  0.09868711  0.95488142  0.50582225     0.13500
H582        H  0.13116726  0.92656857  0.50209439     0.12600
C583        C  0.69299815  0.27349154  0.37496396     0.18900
C584        C  0.67939410  0.29301962  0.38104439    -0.10200
C585        C  0.67566802  0.29846669  0.40481803    -0.11100
C586        C  0.68557397  0.28448180  0.42267035     0.20500
C587        C  0.69884560  0.26472957  0.41658279    -0.13100
C588        C  0.70255292  0.25927226  0.39281912    -0.11400
C589        C  0.68276114  0.29102610  0.44709365     0.01400
C590        C  0.67986729  0.29839028  0.46684319    -0.31400
C591        C  0.69862901  0.26880853  0.35061295     0.02800
C592        C  0.70642271  0.26426398  0.33137168    -0.33100
H593        H  0.67206412  0.30425882  0.36746156     0.13900
H594        H  0.66541052  0.31381811  0.40927799     0.13700
H595        H  0.70664524  0.25380669  0.43016008     0.13500
H596        H  0.71326237  0.24423053  0.38836824     0.12600
C597        C  0.27884695  0.36669550  0.68992381     0.18900
C598        C  0.29687677  0.37187199  0.67393331    -0.10200
C599        C  0.30354526  0.39529829  0.66970715    -0.11100
C600        C  0.29230070  0.41380220  0.68146992     0.20500
C601        C  0.27406724  0.40861989  0.69719689    -0.13100
C602        C  0.26739575  0.38522729  0.70140503    -0.11400
C603        C  0.29987012  0.43795028  0.67786381     0.01400
C604        C  0.30715857  0.45774731  0.67455089    -0.31400
C605        C  0.27307342  0.34253102  0.69595761     0.02800
C606        C  0.26834791  0.32340964  0.70424202    -0.33100
H607        H  0.30605298  0.35781210  0.66505430     0.13900
H608        H  0.31768723  0.39895234  0.65753135     0.13700
H609        H  0.26521545  0.42263452  0.70647111     0.13500
H610        H  0.25357975  0.38157234  0.71395557     0.12600
C611        C  0.35825714  0.67993473  0.27296931     0.18900
C612        C  0.36412241  0.66662177  0.29298034    -0.10200
C613        C  0.38770481  0.66265363  0.29869275    -0.11100
C614        C  0.40555249  0.67205889  0.28449893     0.20500
C615        C  0.39965990  0.68485637  0.26419080    -0.13100
C616        C  0.37612144  0.68879460  0.25846992    -0.11400
C617        C  0.42980233  0.66966421  0.29143335     0.01400
C618        C  0.44977690  0.66799516  0.29836207    -0.31400
C619        C  0.33431566  0.68695550  0.26861820     0.02800
C620        C  0.31614861  0.69722262  0.26493013    -0.33100
H621        H  0.35053766  0.65994402  0.30451780     0.13900
H622        H  0.39202076  0.65279175  0.31450465     0.13700
H623        H  0.41324114  0.69231126  0.25312518     0.13500
H624        H  0.37186276  0.69940477  0.24313472     0.12600
C625        C  0.70523047  0.36346544  0.27888725     0.18900
C626        C  0.72473783  0.37855625  0.27964658    -0.10200
C627        C  0.72211726  0.40230054  0.28583849    -0.11100
C628        C  0.69993777  0.41133950  0.29134494     0.20500
C629        C  0.68038493  0.39631618  0.29033546    -0.13100
C630        C  0.68300859  0.37254703  0.28415342    -0.11400
C631        C  0.69728892  0.43562167  0.29899266     0.01400
C632        C  0.69397832  0.45519476  0.30687428    -0.31400
C633        C  0.70841486  0.33865198  0.27349461     0.02800
C634        C  0.71407405  0.31841038  0.26975561    -0.33100
H635        H  0.74205435  0.37189664  0.27572325     0.13900
H636        H  0.73744618  0.41352199  0.28661024     0.13700
H637        H  0.66313446  0.40289980  0.29462640     0.13500
H638        H  0.66774682  0.36121597  0.28376016     0.12600
C639        C  0.26528955  0.69501472  0.36245341     0.18900
C640        C  0.26181440  0.71087307  0.38103839    -0.10200
C641        C  0.27246331  0.70710373  0.40310059    -0.11100
C642        C  0.28675879  0.68740104  0.40695964     0.20500
C643        C  0.29017582  0.67146260  0.38840588    -0.13100
C644        C  0.27954480  0.67526146  0.36630386    -0.11400
C645        C  0.29806970  0.68370098  0.42976594     0.01400
C646        C  0.30792552  0.68038264  0.44854547    -0.31400
C647        C  0.25507507  0.69970893  0.33931587     0.02800
C648        C  0.24760728  0.70570991  0.32010304    -0.33100
H649        H  0.25100772  0.72625434  0.37844160     0.13900
H650        H  0.26962341  0.71965479  0.41711742     0.13700
H651        H  0.30117495  0.65618115  0.39096685     0.13500
H652        H  0.28261381  0.66288853  0.35217551     0.12600
C653        C  0.36704280  0.28451276  0.69738643     0.18900
C654        C  0.38465909  0.27466346  0.71162778    -0.10200
C655        C  0.40802576  0.28198332  0.70929444    -0.11100
C656        C  0.41408345  0.29928082  0.69270076     0.20500
C657        C  0.39649766  0.30905226  0.67833979    -0.13100
C658        C  0.37309226  0.30173537  0.68069084    -0.11400
C659        C  0.43823604  0.30703656  0.69043295     0.01400
C660        C  0.45817925  0.31395923  0.68773738    -0.31400
C661        C  0.34276236  0.27786921  0.70115723     0.02800
C662        C  0.32332991  0.27244870  0.70788707    -0.33100
H663        H  0.38028519  0.26151176  0.72476949     0.13900
H664        H  0.42132417  0.27426430  0.72054137     0.13700
H665        H  0.40084720  0.32244472  0.66544512     0.13500
H666        H  0.35971863  0.30969850  0.66970636     0.12600
C667        C  0.40443911  0.60485785  0.49227566     0.18900
C668        C  0.41607408  0.59755001  0.47181131    -0.10200
C669        C  0.43336336  0.58010419  0.47310687    -0.11100
C670        C  0.43916860  0.56981029  0.49485907     0.20500
C671        C  0.42762868  0.57719799  0.51533414    -0.13100
C672        C  0.41035251  0.59464370  0.51404292    -0.11400
C673        C  0.45678954  0.55160084  0.49616725     0.01400
C674        C  0.47145646  0.53629128  0.49723243    -0.31400
C675        C  0.38624905  0.62253982  0.49094806     0.02800
C676        C  0.37074235  0.63704213  0.49035990    -0.33100
H677        H  0.41171028  0.60524536  0.45487709     0.13900
H678        H  0.44213908  0.57456947  0.45711281     0.13700
H679        H  0.43192109  0.56941919  0.53226005     0.13500
H680        H  0.40151757  0.60009037  0.53002310     0.12600
C681        C  0.40020734  0.50438226  0.59915649     0.18900
C682        C  0.39804299  0.51707121  0.57802664    -0.10200
C683        C  0.41618613  0.51676819  0.56148085    -0.11100
C684        C  0.43655464  0.50378606  0.56603216     0.20500
C685        C  0.43881828  0.49134682  0.58726565    -0.13100
C686        C  0.42069519  0.49163186  0.60379302    -0.11400
C687        C  0.45496477  0.50290005  0.54880582     0.01400
C688        C  0.47029799  0.50192544  0.53427984    -0.31400
C689        C  0.38129771  0.50404871  0.61590110     0.02800
C690        C  0.36551861  0.50338685  0.62999315    -0.33100
H691        H  0.38227276  0.52701818  0.57427031     0.13900
H692        H  0.41427160  0.52647140  0.54510823     0.13700
H693        H  0.45452615  0.48130324  0.59096906     0.13500
H694        H  0.42256859  0.48178150  0.62007791     0.12600
C695        C  0.50370085  0.60020196  0.39266405     0.18900
C696        C  0.49323019  0.60452655  0.41454731    -0.10200
C697        C  0.49446718  0.58764239  0.43250457    -0.11100
C698        C  0.50616771  0.56637210  0.42862970     0.20500
C699        C  0.51662503  0.56205253  0.40675585    -0.13100
C700        C  0.51540681  0.57893730  0.38881609    -0.11400
C701        C  0.50716602  0.54886907  0.44696272     0.01400
C702        C  0.50747222  0.53420821  0.46235578    -0.31400
C703        C  0.50206134  0.61732801  0.37399982     0.02800
C704        C  0.50029407  0.63121449  0.35798697    -0.33100
H705        H  0.48404493  0.62087635  0.41767907     0.13900
H706        H  0.48624868  0.59111713  0.44934464     0.13700
H707        H  0.52559766  0.54560897  0.40354064     0.13500
H708        H  0.52347673  0.57537143  0.37192266     0.12600
C709        C  0.61223709  0.49467025  0.39875122     0.18900
C710        C  0.59587803  0.51301948  0.39848596    -0.10200
C711        C  0.57795028  0.51368282  0.41526472    -0.11100
C712        C  0.57620848  0.49598895  0.43243159     0.20500
C713        C  0.59253921  0.47758520  0.43271239    -0.13100
C714        C  0.61050961  0.47693175  0.41591569    -0.11400
C715        C  0.55774410  0.49684649  0.44975604     0.01400
C716        C  0.54230037  0.49779174  0.46426154    -0.31400
C717        C  0.63074783  0.49425425  0.38143837     0.02800
C718        C  0.64593823  0.49474498  0.36662734    -0.33100
H719        H  0.59701209  0.52683571  0.38534308     0.13900
H720        H  0.56548539  0.52802512  0.41488614     0.13700
H721        H  0.59139895  0.46380791  0.44590406     0.13500
H722        H  0.62304600  0.46264573  0.41633281     0.12600
C723        C  0.60401209  0.39222816  0.50716764     0.18900
C724        C  0.59473049  0.39862356  0.48517362    -0.10200
C725        C  0.57826171  0.41672204  0.48352747    -0.11100
C726        C  0.57099601  0.42848251  0.50388626     0.20500
C727        C  0.58011588  0.42196095  0.52591989    -0.13100
C728        C  0.59662422  0.40388027  0.52755522    -0.11400
C729        C  0.55433142  0.44733491  0.50215568     0.01400
C730        C  0.54031954  0.46311829  0.50097339    -0.31400
C731        C  0.62121105  0.37383859  0.50870972     0.02800
C732        C  0.63566054  0.35843220  0.50942482    -0.33100
H733        H  0.60030783  0.38969324  0.46929571     0.13900
H734        H  0.57128857  0.42161221  0.46642186     0.13700
H735        H  0.57454454  0.43090786  0.54177533     0.13500
H736        H  0.60367194  0.39904992  0.54465847     0.12600
C737        C  0.50809740  0.39858315  0.60590175     0.18900
C738        C  0.51944996  0.39475354  0.58433854    -0.10200
C739        C  0.51872139  0.41193691  0.56655138    -0.11100
C740        C  0.50660815  0.43304826  0.57020114     0.20500
C741        C  0.49540256  0.43689681  0.59179622    -0.13100
C742        C  0.49610429  0.41974173  0.60955106    -0.11400
C743        C  0.50565263  0.45073141  0.55186214     0.01400
C744        C  0.50513165  0.46547531  0.53644904    -0.31400
C745        C  0.50841358  0.38082586  0.62422036     0.02800
C746        C  0.50776632  0.36629384  0.63984422    -0.33100
H747        H  0.52878540  0.37848254  0.58125516     0.13900
H748        H  0.52754115  0.40875024  0.54996503     0.13700
H749        H  0.48609763  0.45317606  0.59492113     0.13500
H750        H  0.48725562  0.42294986  0.62609784     0.12600
C751        C  0.80410882  0.25277714  0.13594387     0.18900
C752        C  0.82419254  0.26669700  0.13275565    -0.10200
C753        C  0.82925593  0.27653625  0.11055655    -0.11100
C754        C  0.81424794  0.27260469  0.09128417     0.20500
C755        C  0.79439572  0.25837473  0.09441758    -0.13100
C756        C  0.78934314  0.24854850  0.11657926    -0.11400
C757        C  0.81869706  0.28380430  0.06860955     0.01400
C758        C  0.82213970  0.29382855  0.04996524    -0.31400
C759        C  0.79763143  0.24412815  0.15920644     0.02800
C760        C  0.78983680  0.23828367  0.17826174    -0.33100
H761        H  0.83573083  0.27032344  0.14754221     0.13900
H762        H  0.84461999  0.28750057  0.10852192     0.13700
H763        H  0.78254691  0.25517421  0.07978421     0.13500
H764        H  0.77368006  0.23803128  0.11871194     0.12600
C765        C  0.13903138  0.28233042  0.80868734     0.18900
C766        C  0.13169314  0.29222445  0.83000849    -0.10200
C767        C  0.10797389  0.29753032  0.83345941    -0.11100
C768        C  0.09151150  0.29297934  0.81561648     0.20500
C769        C  0.09887182  0.28298640  0.79437369    -0.13100
C770        C  0.12253144  0.27767955  0.79093508    -0.11400
C771        C  0.06728991  0.29942859  0.81878133     0.01400
C772        C  0.04760439  0.30641371  0.82209379    -0.31400
C773        C  0.16340868  0.27733587  0.80435031     0.02800
C774        C  0.18250210  0.27253046  0.79665404    -0.33100
H775        H  0.14426559  0.29600280  0.84381609     0.13900
H776        H  0.10251005  0.30539202  0.84991498     0.13700
H777        H  0.08638515  0.27951865  0.78040099     0.13500
H778        H  0.12800282  0.27012958  0.77432797     0.12600
C779        C  0.81392347  0.35125371  0.23171945     0.18900
C780        C  0.80568695  0.36942781  0.24613463    -0.10200
C781        C  0.80742469  0.39282410  0.23863777    -0.11100
C782        C  0.81730921  0.39810151  0.21665857     0.20500
C783        C  0.82581227  0.37996231  0.20240903    -0.13100
C784        C  0.82407496  0.35659213  0.20989540    -0.11400
C785        C  0.81831224  0.42196914  0.20828660     0.01400
C786        C  0.81984546  0.44132480  0.19972735    -0.31400
C787        C  0.80936644  0.32717929  0.23805936     0.02800
C788        C  0.80126012  0.30812011  0.24251697    -0.33100
H789        H  0.79738784  0.36546624  0.26285115     0.13900
H790        H  0.80070056  0.40671359  0.24975052     0.13700
H791        H  0.83339579  0.38386079  0.18533813     0.13500
H792        H  0.83008974  0.34267208  0.19841928     0.12600
C793        C  0.08080336  0.68989993  0.21061846     0.18900
C794        C  0.08861266  0.70470428  0.22878946    -0.10200
C795        C  0.11272152  0.70704096  0.23365109    -0.11100
C796        C  0.12944279  0.69458170  0.22047659     0.20500
C797        C  0.12159188  0.67966711  0.20243068    -0.13100
C798        C  0.09750687  0.67732259  0.19758297    -0.11400
C799        C  0.15451524  0.69827746  0.22455021     0.01400
C800        C  0.17479750  0.70444972  0.22744734    -0.31400
C801        C  0.05587620  0.68763278  0.20501714     0.02800
C802        C  0.03574032  0.68421060  0.19864556    -0.33100
H803        H  0.07610603  0.71460867  0.23907509     0.13900
H804        H  0.11833788  0.71881692  0.24752650     0.13700
H805        H  0.13410242  0.67004799  0.19188525     0.13500
H806        H  0.09192012  0.66581541  0.18346952     0.12600
C807        C  0.21589966  0.36905212  0.80305147     0.18900
C808        C  0.19365598  0.37314101  0.81268686    -0.10200
C809        C  0.18571539  0.39622896  0.81613020    -0.11100
C810        C  0.19989215  0.41546931  0.80989185     0.20500
C811        C  0.22209598  0.41135007  0.80021843    -0.13100
C812        C  0.23003025  0.38828948  0.79678703    -0.11400
C813        C  0.19174055  0.43934734  0.81355160     0.01400
C814        C  0.18445605  0.45900561  0.81731469    -0.31400
C815        C  0.22377555  0.34531320  0.79822666     0.02800
C816        C  0.23039029  0.32631840  0.79130295    -0.33100
H817        H  0.18239188  0.35851962  0.81735707     0.13900
H818        H  0.16850103  0.39906926  0.82358289     0.13700
H819        H  0.23325364  0.42595347  0.79525753     0.13500
H820        H  0.24712549  0.38546954  0.78905665     0.12600
C821        C  0.22877095  0.69861641  0.11938803     0.18900
C822        C  0.23291439  0.71508889  0.10136598    -0.10200
C823        C  0.22567565  0.71050463  0.07818097    -0.11100
C824        C  0.21420003  0.68939365  0.07276302     0.20500
C825        C  0.21037355  0.67275578  0.09071015    -0.13100
C826        C  0.21760191  0.67734843  0.11391155    -0.11400
C827        C  0.20530700  0.68520669  0.04917685     0.01400
C828        C  0.19624714  0.68102537  0.03029961    -0.31400
C829        C  0.23483120  0.70429168  0.14355178     0.02800
C830        C  0.23894480  0.71155681  0.16319173    -0.33100
H831        H  0.24137280  0.73166820  0.10531595     0.13900
H832        H  0.22867102  0.72359330  0.06458241     0.13700
H833        H  0.20143453  0.65641234  0.08685105     0.13500
H834        H  0.21411836  0.66450147  0.12762360     0.12600
C835        C  0.06389402  0.50252385  0.93558565     0.18900
C836        C  0.05701164  0.50865174  0.91262625    -0.10200
C837        C  0.07360455  0.50957866  0.89447910    -0.11100
C838        C  0.09716092  0.50436446  0.89919510     0.20500
C839        C  0.10404532  0.49845696  0.92220415    -0.13100
C840        C  0.08747576  0.49755797  0.94033900    -0.11400
C841        C  0.11423630  0.50466708  0.88046273     0.01400
C842        C  0.12887672  0.50445277  0.86510997    -0.31400
C843        C  0.04679429  0.50098926  0.95420444     0.02800
C844        C  0.03270995  0.49945734  0.96999257    -0.33100
H845        H  0.03883296  0.51254346  0.90873632     0.13900
H846        H  0.06804805  0.51418453  0.87676680     0.13700
H847        H  0.12219483  0.49439264  0.92609073     0.13500
H848        H  0.09301662  0.49283395  0.95801684     0.12600
C849        C  0.10005216  0.60173989  0.99873923     0.18900
C850        C  0.08127805  0.60492519  0.01431900    -0.10200
C851        C  0.06405012  0.58750696  0.01660948    -0.11100
C852        C  0.06550115  0.56682987  0.00334359     0.20500
C853        C  0.08420692  0.56370234  0.98768914    -0.13100
C854        C  0.10141981  0.58110208  0.98541569    -0.11400
C855        C  0.04789389  0.54878148  0.00570764     0.01400
C856        C  0.03345796  0.53330095  0.00702565    -0.31400
C857        C  0.11799862  0.61949375  0.99651514     0.02800
C858        C  0.13329378  0.63405423  0.99450017    -0.33100
H859        H  0.08000870  0.62078577  0.02470098     0.13900
H860        H  0.04963212  0.59013825  0.02875728     0.13700
H861        H  0.08549303  0.54783956  0.97731755     0.13500
H862        H  0.11585169  0.57842423  0.97328657     0.12600
C863        C  0.99678465  0.59907116  0.11120112     0.18900
C864        C  0.99376644  0.60443201  0.08723566    -0.10200
C865        C  0.99498291  0.58661757  0.07033903    -0.11100
C866        C  0.99919992  0.56333887  0.07727876     0.20500
C867        C  0.00234292  0.55797163  0.10122475    -0.13100
C868        C  0.00115564  0.57580197  0.11812920    -0.11400
C869        C  0.99998652  0.54500331  0.05983985     0.01400
C870        C  0.00024116  0.53004500  0.04481205    -0.31400
C871        C  0.99531743  0.61742253  0.12862461     0.02800
C872        C  0.99418053  0.63284232  0.14315916    -0.33100
H873        H  0.99041020  0.62232423  0.08164439     0.13900
H874        H  0.99253141  0.59098627  0.05185359     0.13700
H875        H  0.00559887  0.54005882  0.10680277     0.13500
H876        H  0.00355743  0.57142522  0.13662020     0.12600
C877        C  0.93267548  0.49055426  0.07687781     0.18900
C878        C  0.93622094  0.49827726  0.10002999    -0.10200
C879        C  0.91772677  0.49770994  0.11614322    -0.11100
C880        C  0.89565767  0.48944296  0.10913872     0.20500
C881        C  0.89216013  0.48162462  0.08601123    -0.13100
C882        C  0.91064147  0.48219643  0.06990073    -0.11400
C883        C  0.87670872  0.48879626  0.12575993     0.01400
C884        C  0.86124841  0.48793318  0.14015164    -0.31400
C885        C  0.95140358  0.49167180  0.06005995     0.02800
C886        C  0.96635034  0.49281415  0.04516100    -0.33100
H887        H  0.95319507  0.50482825  0.10555758     0.13900
H888        H  0.92060861  0.50374596  0.13402424     0.13700
H889        H  0.87516653  0.47515003  0.08043838     0.13500
H890        H  0.90773042  0.47626978  0.05199784     0.12600
C891        C  0.89707292  0.39100298  0.00776062     0.18900
C892        C  0.90063092  0.40506275  0.02772388    -0.10200
C893        C  0.91798338  0.42254618  0.02765593    -0.11100
C894        C  0.93192607  0.42617875  0.00762468     0.20500
C895        C  0.92827021  0.41222648  0.98759941    -0.13100
C896        C  0.91094037  0.39471391  0.98768382    -0.11400
C897        C  0.94997206  0.44411860  0.00764890     0.01400
C898        C  0.96497499  0.45920993  0.00775887    -0.31400
C899        C  0.87943955  0.37264655  0.00798947     0.02800
C900        C  0.86490809  0.35709801  0.00813095    -0.33100
H901        H  0.89008998  0.40243954  0.04335624     0.13900
H902        H  0.92059110  0.43316292  0.04327739     0.13700
H903        H  0.93882230  0.41484195  0.97198643     0.13500
H904        H  0.90841630  0.38400910  0.97209976     0.12600
C905        C  0.00033707  0.43115096  0.93638985     0.18900
C906        C  0.98934668  0.40931803  0.93924814    -0.10200
C907        C  0.99061716  0.39257137  0.92136706    -0.11100
C908        C  0.00290198  0.39760133  0.90059394     0.20500
C909        C  0.01389142  0.41945406  0.89771600    -0.13100
C910        C  0.01261571  0.43622622  0.91561118    -0.11400
C911        C  0.00414666  0.38026306  0.88232761     0.01400
C912        C  0.00463278  0.36521533  0.86748715    -0.31400
C913        C  0.99931843  0.44818072  0.95493089     0.02800
C914        C  0.99892559  0.46234648  0.97060918    -0.33100
H915        H  0.97990551  0.40522188  0.95530834     0.13900
H916        H  0.98207726  0.37570787  0.92374575     0.13700
H917        H  0.02344868  0.42349161  0.88169655     0.13500
H918        H  0.02122960  0.45305781  0.91330631     0.12600
C919        C  0.29191881  0.81369316  0.08110399     0.18900
C920        C  0.26811813  0.81200309  0.08702656    -0.10200
C921        C  0.26128785  0.80938987  0.11067980    -0.11100
C922        C  0.27817173  0.80854689  0.12871593     0.20500
C923        C  0.30197233  0.81032075  0.12278226    -0.13100
C924        C  0.30879837  0.81293240  0.09913861    -0.11400
C925        C  0.27119178  0.80417194  0.15298941     0.01400
C926        C  0.26548860  0.79748334  0.17251472    -0.31400
C927        C  0.29909936  0.81639701  0.05667268     0.02800
C928        C  0.30619485  0.81946661  0.03673068    -0.33100
H929        H  0.25483645  0.81256584  0.07336216     0.13900
H930        H  0.24286285  0.80775738  0.11486643     0.13700
H931        H  0.31528220  0.80941493  0.13640461     0.13500
H932        H  0.32724576  0.81422168  0.09491891     0.12600
C933        C  0.37828662  0.77544508  0.20579619     0.18900
C934        C  0.39568868  0.75820074  0.20865948    -0.10200
C935        C  0.41910385  0.76294139  0.20250416    -0.11100
C936        C  0.42552197  0.78502316  0.19340770     0.20500
C937        C  0.40816840  0.80236003  0.19081348    -0.13100
C938        C  0.38475100  0.79761566  0.19695450    -0.11400
C939        C  0.44961702  0.78977779  0.18613548     0.01400
C940        C  0.46909801  0.79481522  0.17892975    -0.31400
C941        C  0.35386311  0.77010483  0.21134297     0.02800
C942        C  0.33376660  0.76429904  0.21568065    -0.33100
H943        H  0.39112126  0.74096836  0.21544257     0.13900
H944        H  0.43214977  0.74929197  0.20463734     0.13700
H945        H  0.41269234  0.81950998  0.18380697     0.13500
H946        H  0.37165415  0.81118200  0.19457534     0.12600
C947        C  0.36358160  0.21914392  0.80726883     0.18900
C948        C  0.37255134  0.20117909  0.79304232    -0.10200
C949        C  0.39592469  0.19409217  0.79538224    -0.11100
C950        C  0.41059869  0.20493937  0.81194139     0.20500
C951        C  0.40157214  0.22270079  0.82641367    -0.13100
C952        C  0.37815410  0.22982498  0.82404711    -0.11400
C953        C  0.43473982  0.19754387  0.81425650     0.01400
C954        C  0.45450711  0.19026972  0.81676801    -0.31400
C955        C  0.34004996  0.22761397  0.80311998     0.02800
C956        C  0.32137572  0.23437490  0.79563358    -0.33100
H957        H  0.36156772  0.19290101  0.77985949     0.13900
H958        H  0.40259142  0.18028493  0.78416075     0.13700
H959        H  0.41266886  0.23115978  0.83937183     0.13500
H960        H  0.37154457  0.24385397  0.83501743     0.12600
C961        C  0.28418322  0.13722261  0.80437082     0.18900
C962        C  0.28676186  0.12740615  0.82696561    -0.10200
C963        C  0.29340880  0.10375588  0.82962924    -0.11100
C964        C  0.29750164  0.08969582  0.80973750     0.20500
C965        C  0.29486510  0.09954245  0.78719114    -0.13100
C966        C  0.28823346  0.12312611  0.78453410    -0.11400
C967        C  0.30483581  0.06539110  0.81244792     0.01400
C968        C  0.31177345  0.04544130  0.81544474    -0.31400
C969        C  0.27745892  0.16161940  0.80104218     0.02800
C970        C  0.27197470  0.18112955  0.79435128    -0.33100
H971        H  0.28370921  0.13800105  0.84248267     0.13900
H972        H  0.29543658  0.09647043  0.84717600     0.13700
H973        H  0.29801403  0.08901927  0.77164283     0.13500
H974        H  0.28631950  0.13039721  0.76696363     0.12600
C975        C  0.68906815  0.22169467  0.08971559     0.18900
C976        C  0.70816850  0.23693551  0.09279275    -0.10200
C977        C  0.71297297  0.24646821  0.11506154    -0.11100
C978        C  0.69869298  0.24088169  0.13441974     0.20500
C979        C  0.67936919  0.22598649  0.13122917    -0.13100
C980        C  0.67457147  0.21646486  0.10898328    -0.11400
C981        C  0.70499715  0.24880752  0.15780825     0.01400
C982        C  0.71234209  0.25350743  0.17726108    -0.31400
C983        C  0.68468973  0.21074112  0.06712563     0.02800
C984        C  0.68044765  0.20060818  0.04886664    -0.33100
H985        H  0.71957480  0.24110659  0.07811038     0.13900
H986        H  0.72811189  0.25776336  0.11729022     0.13700
H987        H  0.66831766  0.22131917  0.14603392     0.13500
H988        H  0.65978834  0.20467607  0.10690544     0.12600
C989        C  0.67836525  0.08822542  0.21392402     0.18900
C990        C  0.67305355  0.09629113  0.23662696    -0.10200
C991        C  0.67607286  0.12008860  0.24223740    -0.11100
C992        C  0.68429505  0.13594878  0.22513282     0.20500
C993        C  0.68916949  0.12791423  0.20234177    -0.13100
C994        C  0.68617774  0.10417420  0.19675414    -0.11400
C995        C  0.69018950  0.15979649  0.23144375     0.01400
C996        C  0.69886969  0.17848885  0.23650487    -0.31400
C997        C  0.67587914  0.06369523  0.20799965     0.02800
C998        C  0.67349386  0.04374469  0.20117141    -0.33100
H999        H  0.66692379  0.08416132  0.25004650     0.13900
H1000       H  0.67252086  0.12599801  0.26000113     0.13700
H1001       H  0.69581718  0.13989689  0.18904221     0.13500
H1002       H  0.69027775  0.09819397  0.17912823     0.12600
C1003       C  0.39934383  0.99731256  0.89606421     0.18900
C1004       C  0.40810461  0.01851345  0.90500599    -0.10200
C1005       C  0.42602137  0.01836253  0.92189242    -0.11100
C1006       C  0.43528632  0.99698452  0.92994522     0.20500
C1007       C  0.42641236  0.97576123  0.92115835    -0.13100
C1008       C  0.40848339  0.97591546  0.90426313    -0.11400
C1009       C  0.45389450  0.99688008  0.94715993     0.01400
C1010       C  0.46929163  0.99679026  0.96178150    -0.31400
C1011       C  0.38128772  0.99758096  0.87822610     0.02800
C1012       C  0.36639047  0.99822623  0.86308028    -0.33100
H1013       H  0.40117867  0.03518285  0.89881449     0.13900
H1014       H  0.43270830  0.03485171  0.92856463     0.13700
H1015       H  0.43343085  0.95911047  0.92727311     0.13500
H1016       H  0.40186944  0.95942158  0.89750893     0.12600
C1017       C  0.39816184  0.89626680  0.99220978     0.18900
C1018       C  0.41733512  0.89224299  0.00717228    -0.10200
C1019       C  0.43572913  0.90849280  0.00818437    -0.11100
C1020       C  0.43504807  0.92885445  0.99422952     0.20500
C1021       C  0.41585274  0.93293710  0.97930687    -0.13100
C1022       C  0.39746021  0.91666941  0.97829063    -0.11400
C1023       C  0.45393456  0.94561971  0.99531418     0.01400
C1024       C  0.46942649  0.96003611  0.99612723    -0.31400
C1025       C  0.37923668  0.87949004  0.99131233     0.02800
C1026       C  0.36362360  0.86515808  0.99116801    -0.33100
H1027       H  0.41805058  0.87656714  0.01805546     0.13900
H1028       H  0.45044328  0.90520194  0.01984283     0.13700
H1029       H  0.41509716  0.94866733  0.96853630     0.13500
H1030       H  0.38269721  0.92001259  0.96668580     0.12600
C1031       C  0.56865361  0.06849644  0.00389916     0.18900
C1032       C  0.57743117  0.07918830  0.98342842    -0.10200
C1033       C  0.59348453  0.09775497  0.98508652    -0.11100
C1034       C  0.60087278  0.10578136  0.00725028     0.20500
C1035       C  0.59201932  0.09515282  0.02772314    -0.13100
C1036       C  0.57595468  0.07658591  0.02606490    -0.11400
C1037       C  0.61783472  0.12458232  0.00887316     0.01400
C1038       C  0.63249747  0.13992876  0.00940025    -0.31400
C1039       C  0.55217848  0.04928582  0.00218127     0.02800
C1040       C  0.53826681  0.03330833  0.00077257    -0.33100
H1041       H  0.57190439  0.07312788  0.96616106     0.13900
H1042       H  0.60020067  0.10576840  0.96913314     0.13700
H1043       H  0.59760460  0.10115986  0.04498780     0.13500
H1044       H  0.56926710  0.06854171  0.04200689     0.12600
C1045       C  0.50291846  0.10060887  0.89489388     0.18900
C1046       C  0.48853995  0.08070737  0.89301436    -0.10200
C1047       C  0.48895593  0.06338982  0.91061318    -0.11100
C1048       C  0.50376818  0.06587909  0.93019765     0.20500
C1049       C  0.51814561  0.08577614  0.93209118    -0.13100
C1050       C  0.51771548  0.10309955  0.91449216    -0.11400
C1051       C  0.50420082  0.04801906  0.94828868     0.01400
C1052       C  0.50438792  0.03286925  0.96325136    -0.31400
C1053       C  0.50238128  0.11849924  0.87681420     0.02800
C1054       C  0.50164508  0.13351865  0.86172899    -0.33100
H1055       H  0.47699307  0.07859018  0.87795774     0.13900
H1056       H  0.47775372  0.04809741  0.90896753     0.13700
H1057       H  0.52966422  0.08789565  0.94716296     0.13500
H1058       H  0.52888666  0.11841356  0.91616660     0.12600
C1059       C  0.50618546  0.92433002  0.06368425     0.18900
C1060       C  0.52766769  0.91430700  0.07022951    -0.10200
C1061       C  0.52836536  0.89591209  0.08670976    -0.11100
C1062       C  0.50756572  0.88742142  0.09677661     0.20500
C1063       C  0.48609632  0.89755038  0.09032896    -0.13100
C1064       C  0.48540200  0.91593217  0.07383162    -0.11400
C1065       C  0.50825087  0.86807679  0.11335525     0.01400
C1066       C  0.50902058  0.85158201  0.12685028    -0.31400
C1067       C  0.50543010  0.94309143  0.04649320     0.02800
C1068       C  0.50486448  0.95879058  0.03209001    -0.33100
H1069       H  0.54388264  0.92064216  0.06251015     0.13900
H1070       H  0.54505305  0.88824644  0.09149781     0.13700
H1071       H  0.46987914  0.89114747  0.09795006     0.13500
H1072       H  0.46869603  0.92350719  0.06891948     0.12600
C1073       C  0.56755284  0.99583094  0.07131421     0.18900
C1074       C  0.58219935  0.01519798  0.07519569    -0.10200
C1075       C  0.59791426  0.01509208  0.09412090    -0.11100
C1076       C  0.59907752  0.99560692  0.10925587     0.20500
C1077       C  0.58430532  0.97627048  0.10550147    -0.13100
C1078       C  0.56854607  0.97639354  0.08655782    -0.11400
C1079       C  0.61570424  0.99547029  0.12835473     0.01400
C1080       C  0.63012730  0.99614732  0.14389191    -0.31400
C1081       C  0.55160979  0.99595249  0.05164937     0.02800
C1082       C  0.53812464  0.99615788  0.03527031    -0.33100
H1083       H  0.58155015  0.03031758  0.06352983     0.13900
H1084       H  0.60924697  0.03012827  0.09687176     0.13700
H1085       H  0.58505766  0.96111853  0.11710670     0.13500
H1086       H  0.55722951  0.96133582  0.08373728     0.12600
C1087       C  0.77200817  0.90708304  0.32409846     0.18900
C1088       C  0.78158196  0.88894854  0.33790769    -0.10200
C1089       C  0.77383524  0.86569916  0.33521752    -0.11100
C1090       C  0.75633253  0.86026841  0.31872273     0.20500
C1091       C  0.74645337  0.87846225  0.30513968    -0.13100
C1092       C  0.75421235  0.90175638  0.30783893    -0.11400
C1093       C  0.75042752  0.83590375  0.31392177     0.01400
C1094       C  0.74776915  0.81618528  0.30629700    -0.31400
C1095       C  0.78112501  0.93083729  0.32624518     0.02800
C1096       C  0.79032354  0.94987365  0.32906425    -0.33100
H1097       H  0.79540076  0.89271042  0.35048267     0.13900
H1098       H  0.78191438  0.85189765  0.34557453     0.13700
H1099       H  0.73317043  0.87456347  0.29202904     0.13500
H1100       H  0.74667480  0.91547794  0.29695943     0.12600
C1101       C  0.71051303  0.91706013  0.19911333     0.18900
C1102       C  0.72155229  0.91100133  0.22037338    -0.10200
C1103       C  0.72987443  0.88811630  0.22390510    -0.11100
C1104       C  0.72721615  0.87116959  0.20618839     0.20500
C1105       C  0.71641878  0.87730087  0.18484244    -0.13100
C1106       C  0.70810607  0.90018040  0.18131127    -0.11400
C1107       C  0.73407305  0.84719104  0.21067463     0.01400
C1108       C  0.73830603  0.82736917  0.21699056    -0.31400
C1109       C  0.70079528  0.94022907  0.19578023     0.02800
C1110       C  0.69131715  0.95883660  0.19201145    -0.33100
H1111       H  0.72339768  0.92383222  0.23432608     0.13900
H1112       H  0.73797340  0.88352268  0.24058909     0.13700
H1113       H  0.71404284  0.86431218  0.17112333     0.13500
H1114       H  0.69947885  0.90460927  0.16485802     0.12600
C1115       C  0.90309376  0.70369599  0.19177232     0.18900
C1116       C  0.89688429  0.72749454  0.19362545    -0.10200
C1117       C  0.87317689  0.73424636  0.19430934    -0.11100
C1118       C  0.85522576  0.71734141  0.19305341     0.20500
C1119       C  0.86143180  0.69352815  0.19124226    -0.13100
C1120       C  0.88515036  0.68677328  0.19055163    -0.11400
C1121       C  0.83068222  0.72437849  0.19521485     0.01400
C1122       C  0.81105820  0.73113345  0.20023781    -0.31400
C1123       C  0.92770572  0.69666141  0.19061635     0.02800
C1124       C  0.94785538  0.68990857  0.18842743    -0.33100
H1125       H  0.91037266  0.74086841  0.19458088     0.13900
H1126       H  0.86885416  0.75269091  0.19601698     0.13700
H1127       H  0.84794117  0.68013770  0.19054875     0.13500
H1128       H  0.88948719  0.66830896  0.18909875     0.12600
C1129       C  0.91602445  0.76992159  0.30967737     0.18900
C1130       C  0.89672310  0.77242035  0.32469016    -0.10200
C1131       C  0.87488580  0.76324819  0.31822628    -0.11100
C1132       C  0.87218632  0.75146839  0.29673346     0.20500
C1133       C  0.89159498  0.74856827  0.28190075    -0.13100
C1134       C  0.91346060  0.75774380  0.28838179    -0.11400
C1135       C  0.84913953  0.74437106  0.28901734     0.01400
C1136       C  0.82944841  0.74138491  0.28177908    -0.31400
C1137       C  0.93802035  0.78096493  0.31559128     0.02800
C1138       C  0.95583502  0.79136751  0.32045134    -0.33100
H1139       H  0.89843309  0.78190930  0.34112145     0.13900
H1140       H  0.85996172  0.76586907  0.32972198     0.13700
H1141       H  0.88969180  0.73976290  0.26511227     0.13500
H1142       H  0.92822986  0.75580630  0.27654347     0.12600
C1143       C  0.71569367  0.58688876  0.31551950     0.18900
C1144       C  0.70613569  0.60427011  0.33020785    -0.10200
C1145       C  0.71258811  0.62801439  0.32743769    -0.11100
C1146       C  0.72874247  0.63469315  0.31000591     0.20500
C1147       C  0.73841742  0.61727353  0.29548546    -0.13100
C1148       C  0.73196163  0.59358271  0.29823525    -0.11400
C1149       C  0.73445948  0.65933170  0.30572072     0.01400
C1150       C  0.73914765  0.67880067  0.29812500    -0.31400
C1151       C  0.70848456  0.56238354  0.31789489     0.02800
C1152       C  0.70159291  0.54227475  0.32045062    -0.33100
H1153       H  0.69352071  0.59951124  0.34361047     0.13900
H1154       H  0.70472379  0.64118503  0.33869351     0.13700
H1155       H  0.75070986  0.62205363  0.28179842     0.13500
H1156       H  0.73951358  0.58050064  0.28665499     0.12600
C1157       C  0.78117547  0.56644698  0.19672512     0.18900
C1158       C  0.78102406  0.58313130  0.17847474    -0.10200
C1159       C  0.77332989  0.60602354  0.18277960    -0.11100
C1160       C  0.76573301  0.61232592  0.20533741     0.20500
C1161       C  0.76545870  0.59552542  0.22350137    -0.13100
C1162       C  0.77317714  0.57262032  0.21919292    -0.11400
C1163       C  0.75972630  0.63633580  0.21029983     0.01400
C1164       C  0.75628752  0.65646610  0.21579536    -0.31400
C1165       C  0.79080290  0.54349507  0.19257043     0.02800
C1166       C  0.80036535  0.52515314  0.18822620    -0.33100
H1167       H  0.78730258  0.57857635  0.16108940     0.13900
H1168       H  0.77377811  0.61893145  0.16865322     0.13700
H1169       H  0.75977511  0.60025761  0.24103422     0.13500
H1170       H  0.77335068  0.55987785  0.23348547     0.12600
C1171       C  0.60133018  0.77759212  0.16915480     0.18900
C1172       C  0.60849486  0.75452919  0.17433439    -0.10200
C1173       C  0.63241003  0.74920684  0.17728820    -0.11100
C1174       C  0.64956631  0.76683188  0.17499006     0.20500
C1175       C  0.64241018  0.78978176  0.16932040    -0.13100
C1176       C  0.61851504  0.79509738  0.16636417    -0.11400
C1177       C  0.67396317  0.76198880  0.18114686     0.01400
C1178       C  0.69277293  0.75851404  0.19072156    -0.31400
C1179       C  0.57650566  0.78357180  0.16729476     0.02800
C1180       C  0.55626994  0.79014385  0.16543189    -0.33100
H1181       H  0.59557937  0.74073612  0.17657030     0.13900
H1182       H  0.63745800  0.73146127  0.18199209     0.13700
H1183       H  0.65525282  0.80373607  0.16779684     0.13500
H1184       H  0.61341838  0.81300023  0.16237018     0.12600
C1185       C  0.57794783  0.69989974  0.28985811     0.18900
C1186       C  0.59591589  0.69199651  0.30479715    -0.10200
C1187       C  0.61932458  0.69724898  0.29970224    -0.11100
C1188       C  0.62497969  0.71046304  0.27961160     0.20500
C1189       C  0.60702050  0.71850416  0.26469092    -0.13100
C1190       C  0.58355802  0.71323156  0.26979263    -0.11400
C1191       C  0.64916076  0.71581205  0.27439110     0.01400
C1192       C  0.66919768  0.72082035  0.26969259    -0.31400
C1193       C  0.55398713  0.69351833  0.29498963     0.02800
C1194       C  0.53503485  0.68606972  0.30090084    -0.33100
H1195       H  0.59183351  0.68161506  0.32031360     0.13900
H1196       H  0.63299931  0.69094459  0.31137911     0.13700
H1197       H  0.61115695  0.72875834  0.24910106     0.13500
H1198       H  0.56986996  0.71938741  0.25805625     0.12600
C1199       C  0.91711802  0.30693139  0.80049257     0.18900
C1200       C  0.90832516  0.31376402  0.77839490    -0.10200
C1201       C  0.88458618  0.31035892  0.77295587    -0.11100
C1202       C  0.86947297  0.30022718  0.78962943     0.20500
C1203       C  0.87826461  0.29355990  0.81176472    -0.13100
C1204       C  0.90196568  0.29694138  0.81718632    -0.11400
C1205       C  0.84543528  0.29497670  0.78355392     0.01400
C1206       C  0.82624993  0.28750700  0.77847288    -0.31400
C1207       C  0.94146598  0.31066468  0.80641212     0.02800
C1208       C  0.96121768  0.31470073  0.81299389    -0.33100
H1209       H  0.91980747  0.32160904  0.76537032     0.13900
H1210       H  0.87809402  0.31536161  0.75569242     0.13700
H1211       H  0.86686241  0.28548533  0.82472539     0.13500
H1212       H  0.90849015  0.29168330  0.83436484     0.12600
C1213       C  0.91705766  0.18090383  0.71526581     0.18900
C1214       C  0.90983435  0.20392189  0.72011449    -0.10200
C1215       C  0.88668588  0.20843100  0.72698815    -0.11100
C1216       C  0.87043238  0.18999164  0.72908441     0.20500
C1217       C  0.87768545  0.16691769  0.72445743    -0.13100
C1218       C  0.90088152  0.16240017  0.71757589    -0.11400
C1219       C  0.84636921  0.19512930  0.73553606     0.01400
C1220       C  0.82708716  0.20244093  0.74064953    -0.31400
C1221       C  0.94073459  0.17642324  0.70711942     0.02800
C1222       C  0.96003055  0.17239084  0.69916735    -0.33100
H1223       H  0.92202421  0.21842824  0.71835051     0.13900
H1224       H  0.88140331  0.22635579  0.73046586     0.13700
H1225       H  0.86539774  0.15247008  0.72595740     0.13500
H1226       H  0.90612555  0.14452434  0.71382432     0.12600
C1227       C  0.70801103  0.18716443  0.92026254     0.18900
C1228       C  0.72066317  0.20694824  0.91276928    -0.10200
C1229       C  0.72755543  0.20910325  0.88915725    -0.11100
C1230       C  0.72187151  0.19149265  0.87283148     0.20500
C1231       C  0.70941226  0.17160772  0.88036996    -0.13100
C1232       C  0.70252730  0.16944702  0.90399968    -0.11400
C1233       C  0.72784951  0.19466946  0.84824814     0.01400
C1234       C  0.73259105  0.20089569  0.82840346    -0.31400
C1235       C  0.69990060  0.18532591  0.94434340     0.02800
C1236       C  0.69178848  0.18307473  0.96391640    -0.33100
H1237       H  0.72493371  0.22082856  0.92508045     0.13900
H1238       H  0.73701945  0.22466148  0.88355654     0.13700
H1239       H  0.70474202  0.15795723  0.86795202     0.13500
H1240       H  0.69266743  0.15411926  0.90951659     0.12600
C1241       C  0.77507147  0.29868292  0.87370996     0.18900
C1242       C  0.76027390  0.29302841  0.89268511    -0.10200
C1243       C  0.76814919  0.29549736  0.91605790    -0.11100
C1244       C  0.79095698  0.30353824  0.92072563     0.20500
C1245       C  0.80568214  0.30926167  0.90174929    -0.13100
C1246       C  0.79781710  0.30680949  0.87841829    -0.11400
C1247       C  0.79942207  0.30598848  0.94480498     0.01400
C1248       C  0.80776381  0.30898492  0.96429211    -0.31400
C1249       C  0.76772123  0.29430608  0.84954784     0.02800
C1250       C  0.76290791  0.28740276  0.82988989    -0.33100
H1251       H  0.74277703  0.28639260  0.88942137     0.13900
H1252       H  0.75652861  0.29095403  0.93044950     0.13700
H1253       H  0.82334372  0.31545603  0.90498073     0.13500
H1254       H  0.80961413  0.31093207  0.86404578     0.12600
C1255       C  0.62769550  0.19924236  0.76597055     0.18900
C1256       C  0.61765508  0.17676084  0.76513432    -0.10200
C1257       C  0.59491098  0.17300111  0.77368597    -0.11100
C1258       C  0.58199429  0.19168089  0.78315183     0.20500
C1259       C  0.59199183  0.21419904  0.78385749    -0.13100
C1260       C  0.61471886  0.21796389  0.77528790    -0.11400
C1261       C  0.55889504  0.18750958  0.79285627     0.01400
C1262       C  0.54019004  0.18307088  0.80190331    -0.31400
C1263       C  0.65143273  0.20318330  0.75788581     0.02800
C1264       C  0.67118951  0.20867905  0.75240995    -0.33100
H1265       H  0.62746558  0.16210923  0.75806422     0.13900
H1266       H  0.58748064  0.15547559  0.77312395     0.13700
H1267       H  0.58230882  0.22879554  0.79121703     0.13500
H1268       H  0.62225472  0.23544353  0.77610873     0.12600
C1269       C  0.58515276  0.30606681  0.72243192     0.18900
C1270       C  0.59401845  0.28308594  0.72136848    -0.10200
C1271       C  0.61593351  0.27770693  0.73133823    -0.11100
C1272       C  0.62929656  0.29522234  0.74246732     0.20500
C1273       C  0.62037342  0.31815644  0.74362952    -0.23300
C1274       C  0.59845302  0.32353112  0.73368109    -0.11400
C1275       C  0.65227840  0.28969839  0.75215431     0.01400
C1276       C  0.67148077  0.28352304  0.75906067    -0.31400
C1277       C  0.56276223  0.31187773  0.71157306     0.02800
C1278       C  0.54452070  0.31737144  0.70194573    -0.33100
H1279       H  0.58408224  0.26938348  0.71272090     0.13900
H1280       H  0.62253800  0.25986822  0.73022068     0.13700
H1281       H  0.63041494  0.33191529  0.75207498     0.13500
H1282       H  0.59194455  0.34139843  0.73462714     0.12600
C1283       C  0.70869467  0.30651804  0.59666980     0.18900
C1284       C  0.73160308  0.31240245  0.60348787    -0.10200
C1285       C  0.73851436  0.31017941  0.62715797    -0.11100
C1286       C  0.72250789  0.30219389  0.64415991     0.20500
C1287       C  0.69953704  0.29667012  0.63734550    -0.13100
C1288       C  0.69265598  0.29885966  0.61373973    -0.11400
C1289       C  0.72993384  0.29757457  0.66812582     0.01400
C1290       C  0.73522380  0.29015095  0.68742546    -0.31400
C1291       C  0.70132399  0.30861842  0.57234739     0.02800
C1292       C  0.69339549  0.31119927  0.55271247    -0.33100
H1293       H  0.74415026  0.31847492  0.59050951     0.13900
H1294       H  0.75638585  0.31428614  0.63210977     0.13700
H1295       H  0.68704917  0.29025173  0.65021833     0.13500
H1296       H  0.67487531  0.29437352  0.60876652     0.12600
C1297       C  0.78477284  0.17520020  0.59925692     0.18900
C1298       C  0.77443442  0.15813056  0.61387200    -0.10200
C1299       C  0.76909910  0.16338246  0.63742393    -0.11100
C1300       C  0.77414201  0.18572183  0.64649990     0.20500
C1301       C  0.78446608  0.20273148  0.63185099    -0.13100
C1302       C  0.78977234  0.19749862  0.60837284    -0.11400
C1303       C  0.76852271  0.19176160  0.67058446     0.01400
C1304       C  0.76452539  0.20050543  0.68955931    -0.31400
C1305       C  0.79094464  0.16973953  0.57517287     0.02800
C1306       C  0.79738546  0.16501273  0.55544269    -0.33100
H1307       H  0.77057968  0.14077865  0.60709772     0.13900
H1308       H  0.76107799  0.15008252  0.64849565     0.13700
H1309       H  0.78840996  0.22008142  0.63859084     0.13500
H1310       H  0.79785193  0.21082133  0.59735995     0.12600
C1311       C  0.30601543  0.79370583  0.90570266     0.18900
C1312       C  0.28321725  0.79006709  0.89721015    -0.10200
C1313       C  0.27944363  0.78459305  0.87341376    -0.11100
C1314       C  0.29840476  0.78271909  0.85780511     0.20500
C1315       C  0.32124224  0.78610864  0.86632382    -0.13100
C1316       C  0.32502156  0.79158612  0.89015982    -0.11400
C1317       C  0.29408172  0.77739919  0.83318064     0.01400
C1318       C  0.28738585  0.77267568  0.81346246    -0.31400
C1319       C  0.30985046  0.80071501  0.92998178     0.02800
C1320       C  0.31386470  0.80812375  0.94960406    -0.33100
H1321       H  0.26834162  0.79172572  0.90890385     0.13900
H1322       H  0.26169242  0.78199090  0.86714141     0.13700
H1323       H  0.33607745  0.78469777  0.85454925     0.13500
H1324       H  0.34274034  0.79443916  0.89640110     0.12600
C1325       C  0.18270620  0.70369953  0.90017229     0.18900
C1326       C  0.18746831  0.72736587  0.89506632    -0.10200
C1327       C  0.19037639  0.73480585  0.87164270    -0.11100
C1328       C  0.18847640  0.71868310  0.85307196     0.20500
C1329       C  0.18329735  0.69508864  0.85814096    -0.13100
C1330       C  0.18037294  0.68764920  0.88157433    -0.11400
C1331       C  0.19410324  0.72593056  0.82922156     0.01400
C1332       C  0.20219686  0.73197535  0.81042486    -0.31400
C1333       C  0.18057534  0.69578563  0.92441132     0.02800
C1334       C  0.17838021  0.68841918  0.94437312    -0.33100
H1335       H  0.18930852  0.73998641  0.90919341     0.13900
H1336       H  0.19464155  0.75303231  0.86805814     0.13700
H1337       H  0.18204518  0.68235356  0.84404615     0.13500
H1338       H  0.17667582  0.66930954  0.88520633     0.12600
C1339       C  0.18997803  0.91578586  0.70116026     0.18900
C1340       C  0.21155266  0.90464308  0.69766468    -0.10200
C1341       C  0.21384289  0.88047830  0.70182174    -0.11100
C1342       C  0.19457493  0.86714541  0.70945892     0.20500
C1343       C  0.17295486  0.87826015  0.71298908    -0.13100
C1344       C  0.17065585  0.90249315  0.70880279    -0.11400
C1345       C  0.19763402  0.84232937  0.71433595     0.01400
C1346       C  0.20413894  0.82256193  0.71881613    -0.31400
C1347       C  0.18745751  0.94053483  0.69573322     0.02800
C1348       C  0.18465564  0.96061420  0.68919077    -0.33100
H1349       H  0.22658082  0.91460158  0.69159672     0.13900
H1350       H  0.23068540  0.87218367  0.69912112     0.13700
H1351       H  0.15793827  0.86824796  0.71898180     0.13500
H1352       H  0.15381779  0.91082172  0.71140018     0.12600
C1353       C  0.30750866  0.91523633  0.78846321     0.18900
C1354       C  0.28533519  0.90878850  0.77992001    -0.10200
C1355       C  0.28109942  0.88570658  0.77228292    -0.11100
C1356       C  0.29897300  0.86875094  0.77309855     0.20500
C1357       C  0.32114512  0.87520970  0.78162857    -0.13100
C1358       C  0.32538225  0.89830039  0.78925812    -0.11400
C1359       C  0.29423305  0.84475923  0.76563197     0.01400
C1360       C  0.28765365  0.82535648  0.75963528    -0.31400
C1361       C  0.31190325  0.93898327  0.79680244     0.02800
C1362       C  0.31654210  0.95825651  0.80469693    -0.33100
H1363       H  0.27128862  0.92155622  0.77925050     0.13900
H1364       H  0.26383827  0.88105354  0.76584589     0.13700
H1365       H  0.33512732  0.86239027  0.78249648     0.13500
H1366       H  0.34258029  0.90291080  0.79588175     0.12600
C1367       C  0.31394054  0.70580623  0.57942851     0.18900
C1368       C  0.31328022  0.68886756  0.59750622    -0.10200
C1369       C  0.30959377  0.69557496  0.62102811    -0.11100
C1370       C  0.30660390  0.71934509  0.62683220     0.20500
C1371       C  0.30748865  0.73631428  0.60879081    -0.13100
C1372       C  0.31117821  0.72960252  0.58525699    -0.11400
C1373       C  0.30083402  0.72612363  0.65085519     0.01400
C1374       C  0.29303731  0.73167850  0.66995715    -0.31400
C1375       C  0.31746766  0.69866398  0.55505492     0.02800
C1376       C  0.32108846  0.69154487  0.53520293    -0.33100
H1377       H  0.31540504  0.67041696  0.59339641     0.13900
H1378       H  0.30872760  0.68218530  0.63462387     0.13700
H1379       H  0.30497232  0.75472250  0.61285654     0.13500
H1380       H  0.31165851  0.74294904  0.57160403     0.12600
C1381       C  0.19393199  0.79654140  0.57472606     0.18900
C1382       C  0.20887447  0.77793697  0.58082681    -0.10200
C1383       C  0.21070190  0.77045169  0.60436284    -0.11100
C1384       C  0.19757639  0.78143132  0.62208932     0.20500
C1385       C  0.18257831  0.80001239  0.61599971    -0.13100
C1386       C  0.18073941  0.80749747  0.59243422    -0.11400
C1387       C  0.20078326  0.77447300  0.64653883     0.01400
C1388       C  0.20691820  0.76881588  0.66624133    -0.31400
C1389       C  0.19218705  0.80447731  0.55041842     0.02800
C1390       C  0.18985712  0.81189382  0.53046110    -0.33100
H1391       H  0.21922523  0.76931626  0.56743418     0.13900
H1392       H  0.22257462  0.75625633  0.60877674     0.13700
H1393       H  0.17251934  0.80886745  0.62946265     0.13500
H1394       H  0.16914734  0.82193255  0.58805166     0.12600
C1395       C  0.30956170  0.58868204  0.70081052     0.18900
C1396       C  0.31612068  0.60688046  0.68536588    -0.10200
C1397       C  0.31339381  0.63046943  0.69195091    -0.11100
C1398       C  0.30417546  0.63614280  0.71411453     0.20500
C1399       C  0.29785090  0.61794464  0.72966538    -0.13100
C1400       C  0.30056917  0.59434582  0.72307221    -0.11400
C1401       C  0.29937631  0.66042573  0.72016644     0.01400
C1402       C  0.29208661  0.67985851  0.72484529    -0.31400
C1403       C  0.31205714  0.56434387  0.69364884     0.02800
C1404       C  0.31531730  0.54464816  0.68623548    -0.33100
H1405       H  0.32311575  0.60283642  0.66811370     0.13900
H1406       H  0.31810920  0.64425639  0.67961174     0.13700
H1407       H  0.29044770  0.62199206  0.74674088     0.13500
H1408       H  0.29543256  0.58055217  0.73522623     0.12600
C1409       C  0.18680194  0.58959716  0.79166310     0.18900
C1410       C  0.18330000  0.59557279  0.76787322    -0.10200
C1411       C  0.18674337  0.61879627  0.76007287    -0.11100
C1412       C  0.19362311  0.63636182  0.77597823     0.20500
C1413       C  0.19711105  0.63037534  0.79977545    -0.13100
C1414       C  0.19368421  0.60716060  0.80756698    -0.11400
C1415       C  0.19855672  0.66009258  0.76770981     0.01400
C1416       C  0.20553538  0.67918460  0.76109836    -0.31400
C1417       C  0.18281554  0.56568808  0.79989839     0.02800
C1418       C  0.17850393  0.54624787  0.80769585    -0.33100
H1419       H  0.17794351  0.58229351  0.75534778     0.13900
H1420       H  0.18421370  0.62300152  0.74159760     0.13700
H1421       H  0.20265688  0.64360850  0.81227737     0.13500
H1422       H  0.19642741  0.60291480  0.82600629     0.12600
loop_ 
_geom_bond_atom_site_label_1 
_geom_bond_atom_site_label_2 
_geom_bond_distance 
_geom_bond_site_symmetry_2 
_ccdc_geom_bond_type 
O1            C9   1.269       .  A
O1          Co21   1.985       .  S
O2           C10   1.271       .  A
O2          Co22   1.991       .  S
O3           C11   1.271       .  A
O3          Co23   2.022       .  S
O4           C12   1.271       .  A
O4          Co24   2.022       .  S
O5           C11   1.271       .  A
O5          Co22   1.989       .  S
O6           C12   1.268       .  A
O6          Co21   1.982       .  S
O7           C10   1.269       .  A
O7          Co24   2.020       .  S
O8            C9   1.269       .  A
O8          Co23   2.017       .  S
C9         C1402   1.444       .  S
C10        C1360   1.449       .  S
C11        C1374   1.449       .  S
C12        C1318   1.444       .  S
O13          C26   1.270       .  A
O13         Co21   2.021       .  S
O14          C27   1.269       .  A
O14         Co22   2.016       .  S
O15          C28   1.271       .  A
O15         Co23   1.991       .  S
O16          C29   1.267       .  A
O16         Co24   1.981       .  S
O17          C29   1.270       .  A
O17         Co22   2.019       .  S
O18          C28   1.270       .  A
O18         Co21   2.020       .  S
O19          C26   1.267       .  A
O19         Co24   1.982       .  S
O20          C27   1.270       .  A
O20         Co23   1.988       .  S
Co21         O25   2.110       .  S
Co22         O25   2.113       .  S
Co23         O25   2.113       .  S
Co24         O25   2.112       .  S
C26        C1332   1.442       .  S
C27        C1388   1.444       .  S
C28        C1416   1.448       .  S
C29        C1346   1.441       .  S
O30          C38   1.272       .  A
O30         Co50   1.982       .  S
O31          C39   1.269       .  A
O31         Co51   1.995       .  S
O32          C40   1.271       .  A
O32         Co52   2.014       .  S
O33          C41   1.296       .  A
O33         Co53   2.124       .  S
O34          C40   1.271       .  A
O34         Co51   1.991       .  S
O35          C41   1.267       .  A
O35         Co50   1.899       .  S
O36          C39   1.265       .  A
O36         Co53   1.992       .  S
O37          C38   1.276       .  A
O37         Co52   2.019       .  S
C38        C1304   1.440       .  S
C39        C1234   1.439       .  S
C40        C1220   1.446       .  S
C41        C1264   1.442       .  S
O42          C55   1.297       .  A
O42         Co50   2.124       .  S
O43          C56   1.273       .  A
O43         Co51   2.015       .  S
O44          C57   1.266       .  A
O44         Co52   1.994       .  S
O45          C58   1.277       .  A
O45         Co53   1.996       .  S
O46          C58   1.274       .  A
O46         Co51   2.012       .  S
O47          C57   1.263       .  A
O47         Co50   1.995       .  S
O48          C55   1.270       .  A
O48         Co53   1.906       .  S
O49          C56   1.269       .  A
O49         Co52   1.980       .  S
Co50         O54   2.002       .  S
Co51         O54   2.040       .  S
Co52         O54   2.041       .  S
Co53         O54   2.005       .  S
C55        C1276   1.449       .  S
C56        C1206   1.439       .  S
C57        C1290   1.440       .  S
C58        C1250   1.446       .  S
O59          C67   1.281       .  A
O59         Co79   2.001       .  S
O60          C68   1.259       .  A
O60         Co80   2.000       .  S
O61          C69   1.265       .  A
O61         Co81   2.002       .  S
O62          C70   1.294       .  A
O62         Co82   1.987       .  S
O63          C69   1.262       .  A
O63         Co80   1.980       .  S
O64          C70   1.296       .  A
O64         Co79   1.985       .  S
O65          C68   1.262       .  A
O65         Co82   1.991       .  S
O66          C67   1.274       .  A
O66         Co81   2.009       .  S
C67        C1178   1.451       .  S
C68        C1122   1.454       .  S
C69        C1108   1.435       .  S
C70        C1164   1.433       .  S
O71          C84   1.248       .  A
O71         Co79   2.040       .  S
O72          C85   1.271       .  A
O72         Co80   2.005       .  S
O73          C86   1.269       .  A
O73         Co81   1.988       .  S
O74          C87   1.270       .  A
O74         Co82   2.010       .  S
O75          C87   1.265       .  A
O75         Co80   1.981       .  S
O76          C86   1.271       .  A
O76         Co79   2.010       .  S
O77          C84   1.239       .  A
O77         Co82   1.989       .  S
O78          C85   1.274       .  A
O78         Co81   1.989       .  S
Co79         O83   2.075       .  S
Co80         O83   2.056       .  S
Co81         O83   2.045       .  S
Co82         O83   2.017       .  S
C84        C1150   1.449       .  S
C85        C1094   1.444       .  S
C86        C1192   1.438       .  S
C87        C1136   1.437       .  S
C88        C1052   1.452       .  S
C88          C89   1.413       .  A
C88          C93   1.412   1_545  A
C89        C1040   1.455   1_556  S
C89          C90   1.413   1_546  A
C90        C1082   1.449       .  S
C90          C91   1.412       .  A
C91        C1068   1.455       .  S
C91          C92   1.410   1_554  A
C92        C1024   1.451       .  S
C92          C93   1.411       .  A
C93        C1010   1.453       .  S
C94        C1110   1.443       .  S
C94          C95   1.401       .  A
C94          C99   1.406   1_565  A
C95          C96   1.399       .  A
C95         H100   1.085       .  S
C96        C1080   1.439       .  S
C96          C97   1.399   1_565  A
C97          C98   1.401       .  A
C97         H101   1.085       .  S
C98         C998   1.443       .  S
C98          C99   1.406       .  A
C99         H102   1.084       .  S
C103        C984   1.448       .  S
C103        C104   1.407       .  A
C103        C108   1.405       .  A
C104        C105   1.406   1_554  A
C104        H109   1.084       .  S
C105       C1236   1.446       .  S
C105        C106   1.401       .  A
C106        C107   1.400   1_556  A
C106        H110   1.086       .  S
C107       C1038   1.445       .  S
C107        C108   1.403       .  A
C108        H111   1.085       .  S
C112       C1362   1.454       .  S
C112        C113   1.412   1_565  A
C112        C117   1.403       .  A
C113        C114   1.412       .  A
C113        H118   1.084       .  S
C114        C968   1.453       .  S
C114        C115   1.402       .  A
C115        C116   1.400   1_545  A
C115        H119   1.085       .  S
C116       C1012   1.443       .  S
C116        C117   1.401       .  A
C117        H120   1.085       .  S
C121       C1262   1.448       .  S
C121        C122   1.408       .  A
C121        C126   1.403       .  A
C122        C123   1.408       .  A
C122        H127   1.084       .  S
C123        C954   1.447       .  S
C123        C124   1.401       .  A
C124        C125   1.399       .  A
C124        H128   1.085       .  S
C125       C1054   1.442       .  S
C125        C126   1.401       .  A
C126        H129   1.085       .  S
C130       C1180   1.460       .  S
C130        C131   1.416       .  A
C130        C135   1.403       .  A
C131        C132   1.416       .  A
C131        H136   1.084       .  S
C132        C940   1.460       .  S
C132        C133   1.404       .  A
C133        C134   1.401       .  A
C133        H137   1.086       .  S
C134       C1066   1.446       .  S
C134        C135   1.401       .  A
C135        H138   1.085       .  S
C139       C1320   1.451       .  S
C139        C140   1.411       .  A
C139        C144   1.402       .  A
C140        C141   1.411   1_556  A
C140        H145   1.084       .  S
C141        C928   1.452       .  S
C141        C142   1.402       .  A
C142        C143   1.400   1_554  A
C142        H146   1.085       .  S
C143       C1026   1.442       .  S
C143        C144   1.400       .  A
C144        H147   1.085       .  S
C148        C898   1.461       .  S
C148        C149   1.411   1_554  A
C148        C153   1.412       .  A
C149        C914   1.445       .  S
C149        C150   1.412   1_655  A
C150        C844   1.454       .  S
C150        C151   1.410   1_556  A
C151        C856   1.454       .  S
C151        C152   1.411       .  A
C152        C870   1.452       .  S
C152        C153   1.413   1_455  A
C153        C886   1.447       .  S
C154       C1334   1.450       .  S
C154        C155   1.403       .  A
C154        C159   1.410       .  A
C155        C156   1.401       .  A
C155        H160   1.085       .  S
C156        C858   1.443       .  S
C156        C157   1.400   1_556  A
C157        C158   1.402       .  A
C157        H161   1.085       .  S
C158        C828   1.450       .  S
C158        C159   1.409   1_554  A
C159        H162   1.084       .  S
C163       C1418   1.453       .  S
C163        C164   1.403       .  A
C163        C168   1.411       .  A
C164        C165   1.401       .  A
C164        H169   1.085       .  S
C165        C842   1.444       .  S
C165        C166   1.401       .  A
C166        C167   1.403       .  A
C166        H170   1.085       .  S
C167        C814   1.452       .  S
C167        C168   1.411       .  A
C168        H171   1.084       .  S
C172        C802   1.461       .  S
C172        C173   1.418   1_455  A
C172        C177   1.402       .  A
C173        C174   1.419       .  A
C173        H178   1.083       .  S
C174       C1124   1.462       .  S
C174        C175   1.404       .  A
C175        C176   1.401       .  A
C175        H179   1.085       .  S
C176        C872   1.444       .  S
C176        C177   1.399   1_655  A
C177        H180   1.086       .  S
C181        C786   1.438       .  S
C181        C182   1.402       .  A
C181        C186   1.400       .  A
C182        C183   1.403       .  A
C182        H187   1.084       .  S
C183       C1166   1.438       .  S
C183        C184   1.401       .  A
C184        C185   1.399       .  A
C184        H188   1.085       .  S
C185        C884   1.437       .  S
C185        C186   1.398       .  A
C186        H189   1.085       .  S
C190        C772   1.442       .  S
C190        C191   1.408       .  A
C190        C195   1.400       .  A
C191        C192   1.407   1_455  A
C191        H196   1.084       .  S
C192       C1208   1.444       .  S
C192        C193   1.400       .  A
C193        C194   1.398   1_655  A
C193        H197   1.084       .  S
C194        C912   1.436       .  S
C194        C195   1.397       .  A
C195        H198   1.085       .  S
C199        C758   1.455       .  S
C199        C200   1.406       .  A
C199        C204   1.411       .  A
C200        C201   1.404       .  A
C200        H205   1.085       .  S
C201        C900   1.449       .  S
C201        C202   1.402   1_554  A
C202        C203   1.404       .  A
C202        H206   1.086       .  S
C203       C1248   1.454       .  S
C203        C204   1.410   1_556  A
C204        H207   1.084       .  S
C208        C744   1.457       .  S
C208        C209   1.412       .  A
C208        C213   1.411       .  A
C209        C688   1.448       .  S
C209        C210   1.412       .  A
C210        C674   1.459       .  S
C210        C211   1.412       .  A
C211        C702   1.449       .  S
C211        C212   1.413       .  A
C212        C716   1.455       .  S
C212        C213   1.411       .  A
C213        C730   1.450       .  S
C214       C1278   1.455       .  S
C214        C215   1.406       .  A
C214        C219   1.411       .  A
C215        C216   1.404       .  A
C215        H220   1.085       .  S
C216        C746   1.447       .  S
C216        C217   1.401       .  A
C217        C218   1.402       .  A
C217        H221   1.086       .  S
C218        C660   1.452       .  S
C218        C219   1.410       .  A
C219        H222   1.084       .  S
C223        C646   1.459       .  S
C223        C224   1.406       .  A
C223        C228   1.413       .  A
C224        C225   1.404       .  A
C224        H229   1.085       .  S
C225        C676   1.449       .  S
C225        C226   1.402       .  A
C226        C227   1.403       .  A
C226        H230   1.086       .  S
C227       C1376   1.456       .  S
C227        C228   1.412       .  A
C228        H231   1.084       .  S
C232       C1152   1.458       .  S
C232        C233   1.403       .  A
C232        C237   1.415       .  A
C233        C234   1.401       .  A
C233        H238   1.085       .  S
C234        C718   1.444       .  S
C234        C235   1.400       .  A
C235        C236   1.403       .  A
C235        H239   1.085       .  S
C236        C632   1.457       .  S
C236        C237   1.415       .  A
C237        H240   1.084       .  S
C241        C618   1.444       .  S
C241        C242   1.401       .  A
C241        C246   1.407       .  A
C242        C243   1.399       .  A
C242        H247   1.085       .  S
C243        C704   1.439       .  S
C243        C244   1.399       .  A
C244        C245   1.402       .  A
C244        H248   1.085       .  S
C245       C1194   1.444       .  S
C245        C246   1.407       .  A
C246        H249   1.084       .  S
C250       C1404   1.451       .  S
C250        C251   1.412       .  A
C250        C255   1.401       .  A
C251        C252   1.412       .  A
C251        H256   1.084       .  S
C252        C604   1.453       .  S
C252        C253   1.403       .  A
C253        C254   1.400       .  A
C253        H257   1.085       .  S
C254        C690   1.440       .  S
C254        C255   1.398       .  A
C255        H258   1.085       .  S
C259       C1292   1.445       .  S
C259        C260   1.408       .  A
C259        C264   1.401       .  A
C260        C261   1.408       .  A
C260        H265   1.084       .  S
C261        C590   1.445       .  S
C261        C262   1.401       .  A
C262        C263   1.398       .  A
C262        H266   1.085       .  S
C263        C732   1.438       .  S
C263        C264   1.398       .  A
C264        H267   1.085       .  S
C268        C522   1.453       .  S
C268        C269   1.412       .  A
C268        C273   1.412   1_565  A
C269        C506   1.452       .  S
C269        C270   1.412   1_655  A
C270        C576   1.455       .  S
C270        C271   1.412       .  A
C271        C562   1.448       .  S
C271        C272   1.412   1_465  A
C272        C548   1.456       .  S
C272        C273   1.411       .  A
C273        C534   1.450       .  S
C274       C1222   1.452       .  S
C274        C275   1.411   1_655  A
C274        C279   1.403       .  A
C275        C276   1.411       .  A
C275        H280   1.084       .  S
C276        C492   1.452       .  S
C276        C277   1.403       .  A
C277        C278   1.401       .  A
C277        H281   1.085       .  S
C278        C550   1.444       .  S
C278        C279   1.401   1_455  A
C279        H282   1.085       .  S
C283        C480   1.447       .  S
C283        C284   1.402       .  A
C283        C288   1.410       .  A
C284        C285   1.398       .  A
C284        H289   1.085       .  S
C285        C564   1.437       .  S
C285        C286   1.397   1_545  A
C286        C287   1.400       .  A
C286        H290   1.085       .  S
C287       C1348   1.446       .  S
C287        C288   1.409   1_565  A
C288        H291   1.084       .  S
C292       C1390   1.452       .  S
C292        C293   1.401       .  A
C292        C297   1.411       .  A
C293        C294   1.400       .  A
C293        H298   1.086       .  S
C294        C578   1.445       .  S
C294        C295   1.403       .  A
C295        C296   1.406       .  A
C295        H299   1.085       .  S
C296        C464   1.456       .  S
C296        C297   1.412       .  A
C297        H300   1.084       .  S
C301       C1306   1.446       .  S
C301        C302   1.402       .  A
C301        C306   1.408       .  A
C302        C303   1.399       .  A
C302        H307   1.085       .  S
C303        C536   1.439       .  S
C303        C304   1.398       .  A
C304        C305   1.401       .  A
C304        H308   1.085       .  S
C305        C450   1.445       .  S
C305        C306   1.407       .  A
C306        H309   1.084       .  S
C310       C1096   1.453       .  S
C310        C311   1.410       .  A
C310        C315   1.404       .  A
C311        C312   1.411   1_565  A
C311        H316   1.084       .  S
C312        C436   1.453       .  S
C312        C313   1.403       .  A
C313        C314   1.401   1_545  A
C313        H317   1.085       .  S
C314        C520   1.444       .  S
C314        C315   1.401       .  A
C315        H318   1.085       .  S
C319       C1138   1.443       .  S
C319        C320   1.403       .  A
C319        C324   1.403       .  A
C320        C321   1.403   1_655  A
C320        H325   1.084       .  S
C321        C422   1.442       .  S
C321        C322   1.402       .  A
C322        C323   1.401   1_455  A
C322        H326   1.084       .  S
C323        C508   1.442       .  S
C323        C324   1.402       .  A
C324        H327   1.085       .  S
O328        C336   1.268       .  A
O328       Co348   1.978       .  S
O329        C337   1.270       .  A
O329       Co349   1.984       .  S
O330        C338   1.268       .  A
O330       Co350   2.019       .  S
O331        C339   1.268       .  A
O331       Co351   2.016       .  S
O332        C338   1.268       .  A
O332       Co349   1.988       .  S
O333        C339   1.267       .  A
O333       Co348   1.986       .  S
O334        C337   1.273       .  A
O334       Co351   2.026       .  S
O335        C336   1.272       .  A
O335       Co350   2.022       .  S
C336        C478   1.439       .  S
C337        C606   1.446       .  S
C338        C494   1.446       .  S
C339        C662   1.445       .  S
O340        C353   1.271       .  A
O340       Co348   2.019       .  S
O341        C354   1.272       .  A
O341       Co349   2.021       .  S
O342        C355   1.266       .  A
O342       Co350   1.985       .  S
O343        C356   1.267       .  A
O343       Co351   1.987       .  S
O344        C356   1.267       .  A
O344       Co349   2.017       .  S
O345        C355   1.268       .  A
O345       Co348   2.020       .  S
O346        C353   1.269       .  A
O346       Co351   1.981       .  S
O347        C354   1.267       .  A
O347       Co350   1.974       .  S
Co348       O352   2.108       .  S
Co349       O352   2.110       .  S
Co350       O352   2.110       .  S
Co351       O352   2.109       .  S
C353        C956   1.439       .  S
C354        C774   1.436       .  S
C355        C970   1.445       .  S
C356        C816   1.444       .  S
O357        C365   1.264       .  A
O357       Co377   1.995       .  S
O358        C366   1.274       .  A
O358       Co378   2.019       .  S
O359        C367   1.269       .  A
O359       Co379   1.980       .  S
O360        C368   1.268       .  A
O360       Co380   1.894       .  S
O361        C367   1.272       .  A
O361       Co378   2.014       .  S
O362        C368   1.298       .  A
O362       Co377   2.130       .  S
O363        C366   1.276       .  A
O363       Co380   1.995       .  S
O364        C365   1.266       .  A
O364       Co379   1.990       .  S
C365        C996   1.437       .  S
C366        C634   1.450       .  S
C367        C592   1.438       .  S
C368        C982   1.441       .  S
O369        C382   1.269       .  A
O369       Co377   1.902       .  S
O370        C383   1.268       .  A
O370       Co378   1.981       .  S
O371        C384   1.275       .  A
O371       Co379   2.018       .  S
O372        C385   1.264       .  A
O372       Co380   1.987       .  S
O373        C385   1.266       .  A
O373       Co378   1.988       .  S
O374        C384   1.276       .  A
O374       Co377   1.994       .  S
O375        C382   1.297       .  A
O375       Co380   2.131       .  S
O376        C383   1.271       .  A
O376       Co379   2.012       .  S
Co377       O381   1.999       .  S
Co378       O381   2.039       .  S
Co379       O381   2.036       .  S
Co380       O381   1.998       .  S
C382        C760   1.448       .  S
C383        C452   1.438       .  S
C384        C438   1.447       .  S
C385        C788   1.431       .  S
O386        C394   1.306       .  A
O386       Co406   2.093       .  S
O387        C395   1.278       .  A
O387       Co407   2.004       .  S
O388        C396   1.301       .  A
O388       Co408   2.123       .  S
O389        C397   1.276       .  A
O389       Co409   2.021       .  S
O390        C396   1.277       .  A
O390       Co407   1.901       .  S
O391        C397   1.273       .  A
O391       Co406   1.983       .  S
O392        C395   1.270       .  A
O392       Co409   2.005       .  S
O393        C394   1.275       .  A
O393       Co408   1.885       .  S
C394        C620   1.437       .  S
C395        C800   1.456       .  S
C396        C648   1.452       .  S
C397        C830   1.444       .  S
O398        C411   1.265       .  A
O398       Co406   2.024       .  S
O399        C412   1.268       .  A
O399       Co407   2.033       .  S
O400        C413   1.306       .  A
O400       Co408   2.101       .  S
O401        C414   1.274       .  A
O401       Co409   1.995       .  S
O402        C414   1.272       .  A
O402       Co407   1.996       .  S
O403        C413   1.278       .  A
O403       Co406   1.912       .  S
O404        C411   1.263       .  A
O404       Co409   1.980       .  S
O405        C412   1.266       .  A
O405       Co408   1.980       .  S
Co406       O410   2.013       .  S
Co407       O410   1.920       .  S
Co408       O410   2.042       .  S
Co409       O410   2.027       .  S
C411        C926   1.447       .  S
C412        C466   1.449       .  S
C413        C942   1.456       .  S
C414        C424   1.436       .  S
C415        C423   1.442       .  S
C415        C416   1.403       .  A
C415        C420   1.400       .  A
C416        C417   1.400       .  A
C416        H425   1.083       .  S
C417        C418   1.401       .  A
C417        H426   1.084       .  S
C418        C421   1.442       .  S
C418        C419   1.402       .  A
C419        C420   1.400       .  A
C419        H427   1.083       .  S
C420        H428   1.084       .  S
C421        C422   1.207       .  T
C423        C424   1.207       .  T
C429        C437   1.454       .  S
C429        C430   1.403       .  A
C429        C434   1.405       .  A
C430        C431   1.406       .  A
C430        H439   1.083       .  S
C431        C432   1.405       .  A
C431        H440   1.083       .  S
C432        C435   1.453       .  S
C432        C433   1.402       .  A
C433        C434   1.403       .  A
C433        H441   1.083       .  S
C434        H442   1.083       .  S
C435        C436   1.214       .  T
C437        C438   1.214       .  T
C443        C451   1.444       .  S
C443        C444   1.402       .  A
C443        C448   1.403       .  A
C444        C445   1.400       .  A
C444        H453   1.083       .  S
C445        C446   1.402       .  A
C445        H454   1.083       .  S
C446        C449   1.445       .  S
C446        C447   1.403       .  A
C447        C448   1.402       .  A
C447        H455   1.083       .  S
C448        H456   1.083       .  S
C449        C450   1.209       .  T
C451        C452   1.208       .  T
C457        C465   1.457       .  S
C457        C458   1.403       .  A
C457        C462   1.405       .  A
C458        C459   1.407       .  A
C458        H467   1.084       .  S
C459        C460   1.406       .  A
C459        H468   1.082       .  S
C460        C463   1.456       .  S
C460        C461   1.403       .  A
C461        C462   1.405       .  A
C461        H469   1.084       .  S
C462        H470   1.081       .  S
C463        C464   1.216       .  T
C465        C466   1.216       .  T
C471        C479   1.447       .  S
C471        C472   1.402       .  A
C471        C476   1.404       .  A
C472        C473   1.402       .  A
C472        H481   1.083       .  S
C473        C474   1.403       .  A
C473        H482   1.083       .  S
C474        C477   1.446       .  S
C474        C475   1.402       .  A
C475        C476   1.402       .  A
C475        H483   1.083       .  S
C476        H484   1.083       .  S
C477        C478   1.209       .  T
C479        C480   1.210       .  T
C485        C493   1.453       .  S
C485        C486   1.404       .  A
C485        C490   1.403       .  A
C486        C487   1.404       .  A
C486        H495   1.083       .  S
C487        C488   1.403       .  A
C487        H496   1.083       .  S
C488        C491   1.453       .  S
C488        C489   1.404       .  A
C489        C490   1.404       .  A
C489        H497   1.083       .  S
C490        H498   1.083       .  S
C491        C492   1.214       .  T
C493        C494   1.213       .  T
C499        C507   1.442       .  S
C499        C500   1.402       .  A
C499        C504   1.401   1_655  A
C500        C501   1.401       .  A
C500        H509   1.083       .  S
C501        C502   1.402       .  A
C501        H510   1.084       .  S
C502        C505   1.441       .  S
C502        C503   1.401   1_655  A
C503        C504   1.399       .  A
C503        H511   1.080       .  S
C504        H512   1.086       .  S
C505        C506   1.207       .  T
C507        C508   1.207       .  T
C513        C521   1.441       .  S
C513        C514   1.401   1_565  A
C513        C518   1.401       .  A
C514        C515   1.400       .  A
C514        H523   1.084       .  S
C515        C516   1.402   1_545  A
C515        H524   1.084       .  S
C516        C519   1.443       .  S
C516        C517   1.402       .  A
C517        C518   1.400       .  A
C517        H525   1.084       .  S
C518        H526   1.083       .  S
C519        C520   1.208       .  T
C521        C522   1.207       .  T
C527        C535   1.439       .  S
C527        C528   1.401       .  A
C527        C532   1.401       .  A
C528        C529   1.398       .  A
C528        H537   1.084       .  S
C529        C530   1.401       .  A
C529        H538   1.084       .  S
C530        C533   1.438       .  S
C530        C531   1.402       .  A
C531        C532   1.399       .  A
C531        H539   1.083       .  S
C532        H540   1.084       .  S
C533        C534   1.205       .  T
C535        C536   1.206       .  T
C541        C549   1.444       .  S
C541        C542   1.402   1_455  A
C541        C546   1.402       .  A
C542        C543   1.401       .  A
C542        H551   1.084       .  S
C543        C544   1.402       .  A
C543        H552   1.083       .  S
C544        C547   1.444       .  S
C544        C545   1.402   1_655  A
C545        C546   1.401       .  A
C545        H553   1.084       .  S
C546        H554   1.083       .  S
C547        C548   1.209       .  T
C549        C550   1.209       .  T
C555        C563   1.437       .  S
C555        C556   1.400       .  A
C555        C560   1.402   1_545  A
C556        C557   1.397       .  A
C556        H565   1.084       .  S
C557        C558   1.401   1_545  A
C557        H566   1.083       .  S
C558        C561   1.436       .  S
C558        C559   1.401       .  A
C559        C560   1.399       .  A
C559        H567   1.084       .  S
C560        H568   1.084       .  S
C561        C562   1.204       .  T
C563        C564   1.204       .  T
C569        C577   1.444       .  S
C569        C570   1.401       .  A
C569        C574   1.403       .  A
C570        C571   1.399       .  A
C570        H579   1.084       .  S
C571        C572   1.401       .  A
C571        H580   1.081       .  S
C572        C575   1.443       .  S
C572        C573   1.402       .  A
C573        C574   1.402       .  A
C573        H581   1.084       .  S
C574        H582   1.083       .  S
C575        C576   1.208       .  T
C577        C578   1.209       .  T
C583        C591   1.444       .  S
C583        C584   1.401       .  A
C583        C588   1.403       .  A
C584        C585   1.401       .  A
C584        H593   1.083       .  S
C585        C586   1.404       .  A
C585        H594   1.083       .  S
C586        C589   1.445       .  S
C586        C587   1.401       .  A
C587        C588   1.401       .  A
C587        H595   1.083       .  S
C588        H596   1.083       .  S
C589        C590   1.209       .  T
C591        C592   1.208       .  T
C597        C605   1.453       .  S
C597        C598   1.403       .  A
C597        C602   1.404       .  A
C598        C599   1.405       .  A
C598        H607   1.083       .  S
C599        C600   1.405       .  A
C599        H608   1.083       .  S
C600        C603   1.453       .  S
C600        C601   1.402       .  A
C601        C602   1.403       .  A
C601        H609   1.083       .  S
C602        H610   1.083       .  S
C603        C604   1.214       .  T
C605        C606   1.213       .  T
C611        C619   1.445       .  S
C611        C612   1.402       .  A
C611        C616   1.403       .  A
C612        C613   1.402       .  A
C612        H621   1.083       .  S
C613        C614   1.404       .  A
C613        H622   1.084       .  S
C614        C617   1.445       .  S
C614        C615   1.401       .  A
C615        C616   1.400       .  A
C615        H623   1.083       .  S
C616        H624   1.084       .  S
C617        C618   1.209       .  T
C619        C620   1.208       .  T
C625        C633   1.457       .  S
C625        C626   1.406       .  A
C625        C630   1.403       .  A
C626        C627   1.406       .  A
C626        H635   1.083       .  S
C627        C628   1.403       .  A
C627        H636   1.083       .  S
C628        C631   1.458       .  S
C628        C629   1.406       .  A
C629        C630   1.407       .  A
C629        H637   1.083       .  S
C630        H638   1.083       .  S
C631        C632   1.217       .  T
C633        C634   1.216       .  T
C639        C647   1.458       .  S
C639        C640   1.405       .  A
C639        C644   1.405       .  A
C640        C641   1.406       .  A
C640        H649   1.081       .  S
C641        C642   1.404       .  A
C641        H650   1.083       .  S
C642        C645   1.459       .  S
C642        C643   1.406       .  A
C643        C644   1.407       .  A
C643        H651   1.082       .  S
C644        H652   1.083       .  S
C645        C646   1.218       .  T
C647        C648   1.217       .  T
C653        C661   1.452       .  S
C653        C654   1.404       .  A
C653        C658   1.403       .  A
C654        C655   1.403       .  A
C654        H663   1.083       .  S
C655        C656   1.402       .  A
C655        H664   1.083       .  S
C656        C659   1.453       .  S
C656        C657   1.405       .  A
C657        C658   1.405       .  A
C657        H665   1.083       .  S
C658        H666   1.083       .  S
C659        C660   1.214       .  T
C661        C662   1.213       .  T
C667        C675   1.448       .  S
C667        C668   1.403       .  A
C667        C672   1.403       .  A
C668        C669   1.402       .  A
C668        H677   1.082       .  S
C669        C670   1.403       .  A
C669        H678   1.085       .  S
C670        C673   1.447       .  S
C670        C671   1.402       .  A
C671        C672   1.402       .  A
C671        H679   1.083       .  S
C672        H680   1.085       .  S
C673        C674   1.210       .  T
C675        C676   1.211       .  T
C681        C689   1.439       .  S
C681        C682   1.402       .  A
C681        C686   1.401       .  A
C682        C683   1.399       .  A
C682        H691   1.084       .  S
C683        C684   1.401       .  A
C683        H692   1.084       .  S
C684        C687   1.437       .  S
C684        C685   1.400       .  A
C685        C686   1.398       .  A
C685        H693   1.084       .  S
C686        H694   1.083       .  S
C687        C688   1.205       .  T
C689        C690   1.206       .  T
C695        C703   1.439       .  S
C695        C696   1.401       .  A
C695        C700   1.401       .  A
C696        C697   1.399       .  A
C696        H705   1.084       .  S
C697        C698   1.401       .  A
C697        H706   1.084       .  S
C698        C701   1.438       .  S
C698        C699   1.401       .  A
C699        C700   1.398       .  A
C699        H707   1.084       .  S
C700        H708   1.084       .  S
C701        C702   1.205       .  T
C703        C704   1.205       .  T
C709        C717   1.444       .  S
C709        C710   1.402       .  A
C709        C714   1.403       .  A
C710        C711   1.399       .  A
C710        H719   1.083       .  S
C711        C712   1.401       .  A
C711        H720   1.084       .  S
C712        C715   1.443       .  S
C712        C713   1.403       .  A
C713        C714   1.402       .  A
C713        H721   1.083       .  S
C714        H722   1.084       .  S
C715        C716   1.208       .  T
C717        C718   1.209       .  T
C723        C731   1.438       .  S
C723        C724   1.401       .  A
C723        C728   1.401       .  A
C724        C725   1.398       .  A
C724        H733   1.084       .  S
C725        C726   1.401       .  A
C725        H734   1.083       .  S
C726        C729   1.438       .  S
C726        C727   1.401       .  A
C727        C728   1.399       .  A
C727        H735   1.084       .  S
C728        H736   1.084       .  S
C729        C730   1.205       .  T
C731        C732   1.205       .  T
C737        C745   1.446       .  S
C737        C738   1.403       .  A
C737        C742   1.402       .  A
C738        C739   1.402       .  A
C738        H747   1.084       .  S
C739        C740   1.403       .  A
C739        H748   1.084       .  S
C740        C743   1.445       .  S
C740        C741   1.401       .  A
C741        C742   1.400       .  A
C741        H749   1.084       .  S
C742        H750   1.083       .  S
C743        C744   1.209       .  T
C745        C746   1.210       .  T
C751        C759   1.454       .  S
C751        C752   1.404       .  A
C751        C756   1.404       .  A
C752        C753   1.406       .  A
C752        H761   1.085       .  S
C753        C754   1.406       .  A
C753        H762   1.082       .  S
C754        C757   1.455       .  S
C754        C755   1.403       .  A
C755        C756   1.404       .  A
C755        H763   1.085       .  S
C756        H764   1.082       .  S
C757        C758   1.215       .  T
C759        C760   1.214       .  T
C765        C773   1.442       .  S
C765        C766   1.401       .  A
C765        C770   1.403       .  A
C766        C767   1.402       .  A
C766        H775   1.083       .  S
C767        C768   1.404       .  A
C767        H776   1.083       .  S
C768        C771   1.443       .  S
C768        C769   1.400       .  A
C769        C770   1.398       .  A
C769        H777   1.083       .  S
C770        H778   1.083       .  S
C771        C772   1.208       .  T
C773        C774   1.207       .  T
C779        C787   1.438       .  S
C779        C780   1.403       .  A
C779        C784   1.400       .  A
C780        C781   1.399       .  A
C780        H789   1.083       .  S
C781        C782   1.400       .  A
C781        H790   1.084       .  S
C782        C785   1.438       .  S
C782        C783   1.401       .  A
C783        C784   1.398       .  A
C783        H791   1.083       .  S
C784        H792   1.084       .  S
C785        C786   1.205       .  T
C787        C788   1.204       .  T
C793        C801   1.463       .  S
C793        C794   1.405       .  A
C793        C798   1.406       .  A
C794        C795   1.409       .  A
C794        H803   1.083       .  S
C795        C796   1.407       .  A
C795        H804   1.083       .  S
C796        C799   1.464       .  S
C796        C797   1.404       .  A
C797        C798   1.408       .  A
C797        H805   1.083       .  S
C798        H806   1.083       .  S
C799        C800   1.220       .  T
C801        C802   1.220       .  T
C807        C815   1.451       .  S
C807        C808   1.403       .  A
C807        C812   1.404       .  A
C808        C809   1.405       .  A
C808        H817   1.083       .  S
C809        C810   1.405       .  A
C809        H818   1.083       .  S
C810        C813   1.453       .  S
C810        C811   1.402       .  A
C811        C812   1.403       .  A
C811        H819   1.083       .  S
C812        H820   1.083       .  S
C813        C814   1.214       .  T
C815        C816   1.212       .  T
C821        C829   1.450       .  S
C821        C822   1.404       .  A
C821        C826   1.403       .  A
C822        C823   1.403       .  A
C822        H831   1.083       .  S
C823        C824   1.402       .  A
C823        H832   1.083       .  S
C824        C827   1.450       .  S
C824        C825   1.404       .  A
C825        C826   1.404       .  A
C825        H833   1.083       .  S
C826        H834   1.083       .  S
C827        C828   1.212       .  T
C829        C830   1.212       .  T
C835        C843   1.442       .  S
C835        C836   1.402       .  A
C835        C840   1.401       .  A
C836        C837   1.401       .  A
C836        H845   1.083       .  S
C837        C838   1.402       .  A
C837        H846   1.084       .  S
C838        C841   1.443       .  S
C838        C839   1.402       .  A
C839        C840   1.399       .  A
C839        H847   1.084       .  S
C840        H848   1.083       .  S
C841        C842   1.208       .  T
C843        C844   1.207       .  T
C849        C857   1.443       .  S
C849        C850   1.403   1_556  A
C849        C854   1.401       .  A
C850        C851   1.401       .  A
C850        H859   1.082       .  S
C851        C852   1.402       .  A
C851        H860   1.085       .  S
C852        C855   1.442       .  S
C852        C853   1.402   1_554  A
C853        C854   1.399       .  A
C853        H861   1.082       .  S
C854        H862   1.086       .  S
C855        C856   1.207       .  T
C857        C858   1.208       .  T
C863        C871   1.443       .  S
C863        C864   1.402       .  A
C863        C868   1.402   1_655  A
C864        C865   1.400       .  A
C864        H873   1.082       .  S
C865        C866   1.401       .  A
C865        H874   1.085       .  S
C866        C869   1.441       .  S
C866        C867   1.402   1_655  A
C867        C868   1.400       .  A
C867        H875   1.082       .  S
C868        H876   1.085       .  S
C869        C870   1.207   1_655  T
C871        C872   1.208       .  T
C877        C885   1.435       .  S
C877        C878   1.400       .  A
C877        C882   1.401       .  A
C878        C879   1.398       .  A
C878        H887   1.084       .  S
C879        C880   1.401       .  A
C879        H888   1.084       .  S
C880        C883   1.436       .  S
C880        C881   1.400       .  A
C881        C882   1.397       .  A
C881        H889   1.084       .  S
C882        H890   1.084       .  S
C883        C884   1.204       .  T
C885        C886   1.203       .  T
C891        C899   1.449       .  S
C891        C892   1.403       .  A
C891        C896   1.403   1_554  A
C892        C893   1.403       .  A
C892        H901   1.082       .  S
C893        C894   1.403       .  A
C893        H902   1.084       .  S
C894        C897   1.449       .  S
C894        C895   1.403   1_554  A
C895        C896   1.403       .  A
C895        H903   1.082       .  S
C896        H904   1.085       .  S
C897        C898   1.212       .  T
C899        C900   1.212       .  T
C905        C913   1.434   1_455  S
C905        C906   1.400   1_455  A
C905        C910   1.401       .  A
C906        C907   1.396       .  A
C906        H915   1.084       .  S
C907        C908   1.400   1_655  A
C907        H916   1.084       .  S
C908        C911   1.435       .  S
C908        C909   1.401       .  A
C909        C910   1.398       .  A
C909        H917   1.084       .  S
C910        H918   1.083       .  S
C911        C912   1.203       .  T
C913        C914   1.203       .  T
C919        C927   1.453       .  S
C919        C920   1.403       .  A
C919        C924   1.404       .  A
C920        C921   1.405       .  A
C920        H929   1.083       .  S
C921        C922   1.405       .  A
C921        H930   1.082       .  S
C922        C925   1.454       .  S
C922        C923   1.404       .  A
C923        C924   1.404       .  A
C923        H931   1.083       .  S
C924        H932   1.083       .  S
C925        C926   1.214       .  T
C927        C928   1.214       .  T
C933        C941   1.461       .  S
C933        C934   1.406       .  A
C933        C938   1.405       .  A
C934        C935   1.407       .  A
C934        H943   1.083       .  S
C935        C936   1.405       .  A
C935        H944   1.083       .  S
C936        C939   1.461       .  S
C936        C937   1.406       .  A
C937        C938   1.407       .  A
C937        H945   1.083       .  S
C938        H946   1.083       .  S
C939        C940   1.219       .  T
C941        C942   1.219       .  T
C947        C955   1.446       .  S
C947        C948   1.403       .  A
C947        C952   1.402       .  A
C948        C949   1.400       .  A
C948        H957   1.083       .  S
C949        C950   1.401       .  A
C949        H958   1.083       .  S
C950        C953   1.447       .  S
C950        C951   1.404       .  A
C951        C952   1.403       .  A
C951        H959   1.083       .  S
C952        H960   1.083       .  S
C953        C954   1.210       .  T
C955        C956   1.209       .  T
C961        C969   1.452       .  S
C961        C962   1.403       .  A
C961        C966   1.404       .  A
C962        C963   1.406       .  A
C962        H971   1.083       .  S
C963        C964   1.406       .  A
C963        H972   1.082       .  S
C964        C967   1.453       .  S
C964        C965   1.402       .  A
C965        C966   1.402       .  A
C965        H973   1.083       .  S
C966        H974   1.083       .  S
C967        C968   1.214       .  T
C969        C970   1.213       .  T
C975        C983   1.448       .  S
C975        C976   1.403       .  A
C975        C980   1.403       .  A
C976        C977   1.403       .  A
C976        H985   1.083       .  S
C977        C978   1.404       .  A
C977        H986   1.084       .  S
C978        C981   1.447       .  S
C978        C979   1.402       .  A
C979        C980   1.401       .  A
C979        H987   1.083       .  S
C980        H988   1.084       .  S
C981        C982   1.210       .  T
C983        C984   1.211       .  T
C989        C997   1.444       .  S
C989        C990   1.402       .  A
C989        C994   1.401       .  A
C990        C991   1.402       .  A
C990        H999   1.083       .  S
C991        C992   1.403       .  A
C991       H1000   1.083       .  S
C992        C995   1.444       .  S
C992        C993   1.401       .  A
C993        C994   1.399       .  A
C993       H1001   1.083       .  S
C994       H1002   1.083       .  S
C995        C996   1.208       .  T
C997        C998   1.208       .  T
C1003      C1011   1.443       .  S
C1003      C1004   1.402   1_565  A
C1003      C1008   1.402       .  A
C1004      C1005   1.400       .  A
C1004      H1013   1.085       .  S
C1005      C1006   1.401   1_545  A
C1005      H1014   1.082       .  S
C1006      C1009   1.441       .  S
C1006      C1007   1.402       .  A
C1007      C1008   1.400       .  A
C1007      H1015   1.084       .  S
C1008      H1016   1.082       .  S
C1009      C1010   1.207       .  T
C1011      C1012   1.208       .  T
C1017      C1025   1.441       .  S
C1017      C1018   1.402   1_556  A
C1017      C1022   1.402       .  A
C1018      C1019   1.399       .  A
C1018      H1027   1.083       .  S
C1019      C1020   1.401   1_554  A
C1019      H1028   1.084       .  S
C1020      C1023   1.440       .  S
C1020      C1021   1.402       .  A
C1021      C1022   1.400       .  A
C1021      H1029   1.082       .  S
C1022      H1030   1.085       .  S
C1023      C1024   1.206       .  T
C1025      C1026   1.207       .  T
C1031      C1039   1.444       .  S
C1031      C1032   1.402   1_554  A
C1031      C1036   1.403       .  A
C1032      C1033   1.401       .  A
C1032      H1041   1.086       .  S
C1033      C1034   1.403   1_556  A
C1033      H1042   1.082       .  S
C1034      C1037   1.445       .  S
C1034      C1035   1.402       .  A
C1035      C1036   1.401       .  A
C1035      H1043   1.085       .  S
C1036      H1044   1.082       .  S
C1037      C1038   1.209       .  T
C1039      C1040   1.209       .  T
C1045      C1053   1.442       .  S
C1045      C1046   1.402       .  A
C1045      C1050   1.402       .  A
C1046      C1047   1.400       .  A
C1046      H1055   1.085       .  S
C1047      C1048   1.402       .  A
C1047      H1056   1.083       .  S
C1048      C1051   1.441       .  S
C1048      C1049   1.402       .  A
C1049      C1050   1.400       .  A
C1049      H1057   1.084       .  S
C1050      H1058   1.083       .  S
C1051      C1052   1.207       .  T
C1053      C1054   1.207       .  T
C1059      C1067   1.443       .  S
C1059      C1060   1.402       .  A
C1059      C1064   1.402       .  A
C1060      C1061   1.401       .  A
C1060      H1069   1.085       .  S
C1061      C1062   1.403       .  A
C1061      H1070   1.082       .  S
C1062      C1065   1.445       .  S
C1062      C1063   1.402       .  A
C1063      C1064   1.401       .  A
C1063      H1071   1.084       .  S
C1064      H1072   1.082       .  S
C1065      C1066   1.209       .  T
C1067      C1068   1.208       .  T
C1073      C1081   1.438       .  S
C1073      C1074   1.400   1_565  A
C1073      C1078   1.402       .  A
C1074      C1075   1.397       .  A
C1074      H1083   1.084       .  S
C1075      C1076   1.401   1_545  A
C1075      H1084   1.083       .  S
C1076      C1079   1.439       .  S
C1076      C1077   1.402       .  A
C1077      C1078   1.400       .  A
C1077      H1085   1.083       .  S
C1078      H1086   1.084       .  S
C1079      C1080   1.205       .  T
C1081      C1082   1.205       .  T
C1087      C1095   1.453       .  S
C1087      C1088   1.403       .  A
C1087      C1092   1.404       .  A
C1088      C1089   1.403       .  A
C1088      H1097   1.084       .  S
C1089      C1090   1.402       .  A
C1089      H1098   1.082       .  S
C1090      C1093   1.453       .  S
C1090      C1091   1.406       .  A
C1091      C1092   1.406       .  A
C1091      H1099   1.084       .  S
C1092      H1100   1.082       .  S
C1093      C1094   1.213       .  T
C1095      C1096   1.214       .  T
C1101      C1109   1.442       .  S
C1101      C1102   1.401       .  A
C1101      C1106   1.403       .  A
C1102      C1103   1.400       .  A
C1102      H1111   1.084       .  S
C1103      C1104   1.403       .  A
C1103      H1112   1.083       .  S
C1104      C1107   1.441       .  S
C1104      C1105   1.400       .  A
C1105      C1106   1.400       .  A
C1105      H1113   1.083       .  S
C1106      H1114   1.083       .  S
C1107      C1108   1.206       .  T
C1109      C1110   1.208       .  T
C1115      C1123   1.463       .  S
C1115      C1116   1.405       .  A
C1115      C1120   1.406       .  A
C1116      C1117   1.408       .  A
C1116      H1125   1.083       .  S
C1117      C1118   1.406       .  A
C1117      H1126   1.083       .  S
C1118      C1121   1.463       .  S
C1118      C1119   1.405       .  A
C1119      C1120   1.409       .  A
C1119      H1127   1.083       .  S
C1120      H1128   1.083       .  S
C1121      C1122   1.219       .  T
C1123      C1124   1.220       .  T
C1129      C1137   1.443       .  S
C1129      C1130   1.401       .  A
C1129      C1134   1.402       .  A
C1130      C1131   1.399       .  A
C1130      H1139   1.083       .  S
C1131      C1132   1.401       .  A
C1131      H1140   1.085       .  S
C1132      C1135   1.443       .  S
C1132      C1133   1.403       .  A
C1133      C1134   1.401       .  A
C1133      H1141   1.083       .  S
C1134      H1142   1.085       .  S
C1135      C1136   1.208       .  T
C1137      C1138   1.208       .  T
C1143      C1151   1.459       .  S
C1143      C1144   1.407       .  A
C1143      C1148   1.403       .  A
C1144      C1145   1.408       .  A
C1144      H1153   1.081       .  S
C1145      C1146   1.404       .  A
C1145      H1154   1.085       .  S
C1146      C1149   1.458       .  S
C1146      C1147   1.406       .  A
C1147      C1148   1.405       .  A
C1147      H1155   1.081       .  S
C1148      H1156   1.085       .  S
C1149      C1150   1.216       .  T
C1151      C1152   1.217       .  T
C1157      C1165   1.438       .  S
C1157      C1158   1.401       .  A
C1157      C1162   1.401       .  A
C1158      C1159   1.398       .  A
C1158      H1167   1.082       .  S
C1159      C1160   1.400       .  A
C1159      H1168   1.085       .  S
C1160      C1163   1.438       .  S
C1160      C1161   1.402       .  A
C1161      C1162   1.399       .  A
C1161      H1169   1.082       .  S
C1162      H1170   1.085       .  S
C1163      C1164   1.205       .  T
C1165      C1166   1.205       .  T
C1171      C1179   1.461       .  S
C1171      C1172   1.405       .  A
C1171      C1176   1.406       .  A
C1172      C1173   1.408       .  A
C1172      H1181   1.083       .  S
C1173      C1174   1.406       .  A
C1173      H1182   1.083       .  S
C1174      C1177   1.461       .  S
C1174      C1175   1.405       .  A
C1175      C1176   1.407       .  A
C1175      H1183   1.083       .  S
C1176      H1184   1.083       .  S
C1177      C1178   1.218       .  T
C1179      C1180   1.219       .  T
C1185      C1193   1.444       .  S
C1185      C1186   1.402       .  A
C1185      C1190   1.402       .  A
C1186      C1187   1.399       .  A
C1186      H1195   1.083       .  S
C1187      C1188   1.400       .  A
C1187      H1196   1.083       .  S
C1188      C1191   1.444       .  S
C1188      C1189   1.404       .  A
C1189      C1190   1.402       .  A
C1189      H1197   1.083       .  S
C1190      H1198   1.083       .  S
C1191      C1192   1.208       .  T
C1193      C1194   1.209       .  T
C1199      C1207   1.445       .  S
C1199      C1200   1.403       .  A
C1199      C1204   1.402       .  A
C1200      C1201   1.402       .  A
C1200      H1209   1.083       .  S
C1201      C1202   1.403       .  A
C1201      H1210   1.083       .  S
C1202      C1205   1.445       .  S
C1202      C1203   1.402       .  A
C1203      C1204   1.400       .  A
C1203      H1211   1.083       .  S
C1204      H1212   1.083       .  S
C1205      C1206   1.209       .  T
C1207      C1208   1.209       .  T
C1213      C1221   1.452       .  S
C1213      C1214   1.402       .  A
C1213      C1218   1.405       .  A
C1214      C1215   1.403       .  A
C1214      H1223   1.083       .  S
C1215      C1216   1.404       .  A
C1215      H1224   1.083       .  S
C1216      C1219   1.453       .  S
C1216      C1217   1.403       .  A
C1217      C1218   1.405       .  A
C1217      H1225   1.083       .  S
C1218      H1226   1.083       .  S
C1219      C1220   1.213       .  T
C1221      C1222   1.214       .  T
C1227      C1235   1.446       .  S
C1227      C1228   1.401       .  A
C1227      C1232   1.404       .  A
C1228      C1229   1.401       .  A
C1228      H1237   1.083       .  S
C1229      C1230   1.404       .  A
C1229      H1238   1.083       .  S
C1230      C1233   1.446       .  S
C1230      C1231   1.401       .  A
C1231      C1232   1.402       .  A
C1231      H1239   1.083       .  S
C1232      H1240   1.083       .  S
C1233      C1234   1.209       .  T
C1235      C1236   1.210       .  T
C1241      C1249   1.454       .  S
C1241      C1242   1.405       .  A
C1241      C1246   1.403       .  A
C1242      C1243   1.406       .  A
C1242      H1251   1.083       .  S
C1243      C1244   1.404       .  A
C1243      H1252   1.083       .  S
C1244      C1247   1.455       .  S
C1244      C1245   1.404       .  A
C1245      C1246   1.404       .  A
C1245      H1253   1.083       .  S
C1246      H1254   1.083       .  S
C1247      C1248   1.215       .  T
C1249      C1250   1.214       .  T
C1255      C1263   1.448       .  S
C1255      C1256   1.402       .  A
C1255      C1260   1.404       .  A
C1256      C1257   1.403       .  A
C1256      H1265   1.084       .  S
C1257      C1258   1.404       .  A
C1257      H1266   1.084       .  S
C1258      C1261   1.449       .  S
C1258      C1259   1.402       .  A
C1259      C1260   1.402       .  A
C1259      H1267   1.084       .  S
C1260      H1268   1.084       .  S
C1261      C1262   1.211       .  T
C1263      C1264   1.211       .  T
C1269      C1277   1.455       .  S
C1269      C1270   1.404       .  A
C1269      C1274   1.404       .  A
C1270      C1271   1.405       .  A
C1270      H1279   1.082       .  S
C1271      C1272   1.405       .  A
C1271      H1280   1.085       .  S
C1272      C1275   1.455       .  S
C1272      C1273   1.403       .  A
C1273      C1274   1.405       .  A
C1273      H1281   1.082       .  S
C1274      H1282   1.084       .  S
C1275      C1276   1.215       .  T
C1277      C1278   1.215       .  T
C1283      C1291   1.446       .  S
C1283      C1284   1.403       .  A
C1283      C1288   1.401       .  A
C1284      C1285   1.404       .  A
C1284      H1293   1.083       .  S
C1285      C1286   1.403       .  A
C1285      H1294   1.083       .  S
C1286      C1289   1.446       .  S
C1286      C1287   1.402       .  A
C1287      C1288   1.399       .  A
C1287      H1295   1.083       .  S
C1288      H1296   1.083       .  S
C1289      C1290   1.209       .  T
C1291      C1292   1.209       .  T
C1297      C1305   1.446       .  S
C1297      C1298   1.404       .  A
C1297      C1302   1.401       .  A
C1298      C1299   1.404       .  A
C1298      H1307   1.083       .  S
C1299      C1300   1.402       .  A
C1299      H1308   1.083       .  S
C1300      C1303   1.447       .  S
C1300      C1301   1.403       .  A
C1301      C1302   1.399       .  A
C1301      H1309   1.083       .  S
C1302      H1310   1.083       .  S
C1303      C1304   1.210       .  T
C1305      C1306   1.210       .  T
C1311      C1319   1.451       .  S
C1311      C1312   1.402       .  A
C1311      C1316   1.405       .  A
C1312      C1313   1.402       .  A
C1312      H1321   1.083       .  S
C1313      C1314   1.404       .  A
C1313      H1322   1.083       .  S
C1314      C1317   1.451       .  S
C1314      C1315   1.403       .  A
C1315      C1316   1.405       .  A
C1315      H1323   1.083       .  S
C1316      H1324   1.083       .  S
C1317      C1318   1.212       .  T
C1319      C1320   1.213       .  T
C1325      C1333   1.450       .  S
C1325      C1326   1.402       .  A
C1325      C1330   1.404       .  A
C1326      C1327   1.403       .  A
C1326      H1335   1.083       .  S
C1327      C1328   1.403       .  A
C1327      H1336   1.083       .  S
C1328      C1331   1.449       .  S
C1328      C1329   1.403       .  A
C1329      C1330   1.403       .  A
C1329      H1337   1.083       .  S
C1330      H1338   1.083       .  S
C1331      C1332   1.211       .  T
C1333      C1334   1.212       .  T
C1339      C1347   1.447       .  S
C1339      C1340   1.401       .  A
C1339      C1344   1.405       .  A
C1340      C1341   1.400       .  A
C1340      H1349   1.083       .  S
C1341      C1342   1.403       .  A
C1341      H1350   1.083       .  S
C1342      C1345   1.448       .  S
C1342      C1343   1.403       .  A
C1343      C1344   1.404       .  A
C1343      H1351   1.083       .  S
C1344      H1352   1.083       .  S
C1345      C1346   1.211       .  T
C1347      C1348   1.210       .  T
C1353      C1361   1.455       .  S
C1353      C1354   1.403       .  A
C1353      C1358   1.405       .  A
C1354      C1355   1.405       .  A
C1354      H1363   1.083       .  S
C1355      C1356   1.406       .  A
C1355      H1364   1.083       .  S
C1356      C1359   1.456       .  S
C1356      C1357   1.403       .  A
C1357      C1358   1.405       .  A
C1357      H1365   1.083       .  S
C1358      H1366   1.083       .  S
C1359      C1360   1.215       .  T
C1361      C1362   1.215       .  T
C1367      C1375   1.457       .  S
C1367      C1368   1.405       .  A
C1367      C1372   1.404       .  A
C1368      C1369   1.405       .  A
C1368      H1377   1.083       .  S
C1369      C1370   1.404       .  A
C1369      H1378   1.083       .  S
C1370      C1373   1.456       .  S
C1370      C1371   1.405       .  A
C1371      C1372   1.406       .  A
C1371      H1379   1.083       .  S
C1372      H1380   1.083       .  S
C1373      C1374   1.215       .  T
C1375      C1376   1.216       .  T
C1381      C1389   1.452       .  S
C1381      C1382   1.402       .  A
C1381      C1386   1.405       .  A
C1382      C1383   1.403       .  A
C1382      H1391   1.083       .  S
C1383      C1384   1.404       .  A
C1383      H1392   1.083       .  S
C1384      C1387   1.452       .  S
C1384      C1385   1.403       .  A
C1385      C1386   1.405       .  A
C1385      H1393   1.083       .  S
C1386      H1394   1.083       .  S
C1387      C1388   1.213       .  T
C1389      C1390   1.213       .  T
C1395      C1403   1.452       .  S
C1395      C1396   1.404       .  A
C1395      C1400   1.403       .  A
C1396      C1397   1.404       .  A
C1396      H1405   1.083       .  S
C1397      C1398   1.403       .  A
C1397      H1406   1.083       .  S
C1398      C1401   1.452       .  S
C1398      C1399   1.405       .  A
C1399      C1400   1.404       .  A
C1399      H1407   1.083       .  S
C1400      H1408   1.083       .  S
C1401      C1402   1.213       .  T
C1403      C1404   1.213       .  T
C1409      C1417   1.454       .  S
C1409      C1410   1.404       .  A
C1409      C1414   1.404       .  A
C1410      C1411   1.405       .  A
C1410      H1419   1.082       .  S
C1411      C1412   1.404       .  A
C1411      H1420   1.083       .  S
C1412      C1415   1.455       .  S
C1412      C1413   1.404       .  A
C1413      C1414   1.405       .  A
C1413      H1421   1.083       .  S
C1414      H1422   1.083       .  S
C1415      C1416   1.215       .  T
C1417      C1418   1.215       .  T
