geometry optimzed in LAMMPS
_audit_creation_date              2020-11-30 
_audit_creation_method            'lammps2cif' 
_symmetry_space_group_name_H-M    'P1' 
_symmetry_Int_Tables_number       1 
_symmetry_cell_setting            triclinic 
loop_ 
_symmetry_equiv_pos_as_xyz 
  x,y,z 
_cell_length_a                    50.67009454 
_cell_length_b                    49.607772674692804 
_cell_length_c                    49.953475356727544 
_cell_angle_alpha                 89.55883438640497 
_cell_angle_beta                  89.55672080626428 
_cell_angle_gamma                 89.97982731839873 
loop_ 
_atom_site_label 
_atom_site_type_symbol 
_atom_site_fract_x 
_atom_site_fract_y 
_atom_site_fract_z 
_atom_site_charge 
O1          O  0.55366888  0.97341826  0.49394273    -0.79900
O2          O  0.44508015  0.99501815  0.52579289    -0.79900
O3          O  0.51484498  0.96419349  0.54118114    -0.79900
O4          O  0.50301587  0.95898324  0.46491736    -0.79800
O5          O  0.48631568  0.99253493  0.56000342    -0.80000
O6          O  0.53114829  0.98742066  0.44778373    -0.79900
O7          O  0.45978138  0.96164699  0.50068670    -0.79900
O8          O  0.56731672  0.98119337  0.53488233    -0.79900
C9          C  0.57114794  0.97032335  0.51228520     1.09800
C10         C  0.44233652  0.97165859  0.51606832     1.09700
C11         C  0.49975283  0.97069002  0.56059099     1.09800
C12         C  0.51810736  0.96581348  0.44581570     1.09700
O13         O  0.51694891  0.03957704  0.46504083    -0.79900
O14         O  0.50417311  0.04509172  0.54062043    -0.80000
O15         O  0.55450092  0.02882964  0.51168658    -0.79900
O16         O  0.44669908  0.01285630  0.47805732    -0.79900
O17         O  0.46195043  0.04511930  0.50413999    -0.79900
O18         O  0.56847205  0.02059822  0.47071187    -0.79900
O19         O  0.48873758  0.01251968  0.44473614    -0.79800
O20         O  0.53075257  0.01530634  0.55762296    -0.79900
Co21       Co  0.53406521  0.00822253  0.48190834     1.51500
Co22       Co  0.47622836  0.01911517  0.53084334     1.51700
Co23       Co  0.53344440  0.99466701  0.52367325     1.51600
Co24       Co  0.47631058  0.98665491  0.47398376     1.51500
O25         O  0.50013939  0.00211726  0.50268201    -1.41800
C26         C  0.50309438  0.03373798  0.44481967     1.09700
C27         C  0.51846460  0.03731756  0.55978662     1.09800
C28         C  0.57209900  0.03175616  0.49314466     1.09800
C29         C  0.44505368  0.03638499  0.48766215     1.09700
O30         O  0.03579632  0.54633502  0.49552912    -0.79900
O31         O  0.01785277  0.43519644  0.52805070    -0.79900
O32         O  0.04296524  0.50668934  0.54247931    -0.79900
O33         O  0.05240113  0.49436194  0.46672099    -0.79800
O34         O  0.01518243  0.47748090  0.56130845    -0.80000
O35         O  0.02499133  0.52173557  0.44789757    -0.79900
O36         O  0.05066699  0.45148324  0.50329264    -0.79900
O37         O  0.02443468  0.55936437  0.53610366    -0.79900
C38         C  0.03621455  0.56423720  0.51413914     1.09800
C39         C  0.04154002  0.43411696  0.51969051     1.09700
C40         C  0.03613443  0.49176647  0.56213901     1.09800
C41         C  0.04587704  0.50795030  0.44642488     1.09700
O42         O  0.97413535  0.50617794  0.46398248    -0.79900
O43         O  0.96406166  0.49229300  0.53940003    -0.80000
O44         O  0.98043205  0.54553540  0.50988340    -0.79900
O45         O  0.00285652  0.43404550  0.47976974    -0.79900
O46         O  0.96875653  0.44861694  0.50338899    -0.79900
O47         O  0.99130337  0.55948968  0.46937656    -0.79900
O48         O  0.00171504  0.47675904  0.44539682    -0.79800
O49         O  0.99109054  0.52128159  0.55669907    -0.79900
Co50       Co  0.00336084  0.52478971  0.48166629     1.51500
Co51       Co  0.99174605  0.46528992  0.53106187     1.51700
Co52       Co  0.01346301  0.52464099  0.52386540     1.51600
Co53       Co  0.02651348  0.46596384  0.47554788     1.51500
O54         O  0.00864730  0.49022617  0.50303595    -1.41800
C55         C  0.98076817  0.49119932  0.44455124     1.09700
C56         C  0.96996720  0.50786758  0.55835621     1.09800
C57         C  0.97930836  0.56369744  0.49131476     1.09800
C58         C  0.97938159  0.43115578  0.48824128     1.09700
O59         O  0.43820132  0.46941111  0.98513355    -0.79900
O60         O  0.54734743  0.50093724  0.96423359    -0.79900
O61         O  0.49572830  0.53067112  0.94786873    -0.79900
O62         O  0.50921430  0.45335019  0.95785419    -0.79800
O63         O  0.52380241  0.54868896  0.97484144    -0.80000
O64         O  0.47989188  0.43534412  0.98597441    -0.79900
O65         O  0.56102294  0.46042928  0.97567047    -0.79900
O66         O  0.45255688  0.49501424  0.95154989    -0.79900
C67         C  0.43571984  0.47877072  0.96161635     1.09800
C68         C  0.56553013  0.48270119  0.96384813     1.09700
C69         C  0.51009750  0.55042902  0.95393337     1.09800
C70         C  0.49432831  0.43386661  0.96489165     1.09700
O71         O  0.49539921  0.45743116  0.03745641    -0.79900
O72         O  0.50914111  0.53463512  0.02723651    -0.80000
O73         O  0.43823707  0.51873154  0.00053642    -0.79900
O74         O  0.54734408  0.48686966  0.02045755    -0.79900
O75         O  0.56071328  0.52754430  0.00876636    -0.79900
O76         O  0.45233231  0.49373564  0.03433777    -0.79900
O77         O  0.52337862  0.43889713  0.01020144    -0.79800
O78         O  0.48020514  0.55312553  0.99952474    -0.79900
Co79       Co  0.46837773  0.46595075  0.01033925     1.51500
Co80       Co  0.52665986  0.51540179  0.99747512     1.51700
Co81       Co  0.46862353  0.52243668  0.97533522     1.51600
Co82       Co  0.52668783  0.47238633  0.98748595     1.51500
O83         O  0.49271374  0.49401859  0.99262570    -1.41800
C84         C  0.50952911  0.43739199  0.03130869     1.09700
C85         C  0.49473372  0.55446641  0.02031957     1.09800
C86         C  0.43523150  0.50936787  0.02399701     1.09800
C87         C  0.56519232  0.50546203  0.02080532     1.09700
C88         C  0.56217652  0.91707919  0.72575787     0.80500
N89         N  0.58127581  0.89791944  0.72618279    -0.77800
C90         C  0.59448148  0.89212535  0.74894715     0.82900
N91         N  0.58858517  0.90576911  0.77164762    -0.77800
C92         C  0.56987370  0.92547733  0.77151070     0.83000
N93         N  0.55659932  0.93115489  0.74845684    -0.79500
C94         C  0.74721351  0.72289276  0.76612638     0.80500
N95         N  0.72784747  0.74181377  0.76621400    -0.77800
C96         C  0.72785791  0.76199941  0.74769141     0.82900
N97         N  0.74746494  0.76329741  0.72900668    -0.77800
C98         C  0.76700083  0.74447757  0.72884405     0.83000
N99         N  0.76677594  0.72429424  0.74741181    -0.79500
C100        C  0.93549555  0.77253210  0.57687424     0.80500
N101        N  0.91557874  0.77172960  0.59531448    -0.77800
C102        C  0.90259426  0.74838984  0.60069031     0.82900
N103        N  0.90945398  0.72571511  0.58735233    -0.77800
C104        C  0.92891622  0.72613472  0.56847082     0.83000
N105        N  0.94207020  0.74965064  0.56327749    -0.79500
C106        C  0.77588234  0.56728615  0.93432423     0.80500
N107        N  0.75344028  0.55306294  0.94052730    -0.77800
C108        C  0.73073849  0.55786567  0.92655085     0.82900
N109        N  0.73070204  0.57694454  0.90687693    -0.77800
C110        C  0.75295193  0.59070200  0.90038758     0.83000
N111        N  0.77543686  0.58571548  0.91406291    -0.79500
C112        C  0.27074264  0.21638821  0.76097994     0.80500
N113        N  0.26823073  0.23275030  0.78255772    -0.77800
C114        C  0.24677818  0.24893920  0.78518757     0.82900
N115        N  0.22789930  0.24876682  0.76615152    -0.77800
C116        C  0.23008489  0.23235223  0.74468969     0.83000
N117        N  0.25153887  0.21610796  0.74207314    -0.79500
C118        C  0.26613841  0.41453511  0.93672581     0.80500
N119        N  0.26445551  0.39243883  0.92109834    -0.77800
C120        C  0.24109574  0.38043021  0.91633683     0.82900
N121        N  0.21885295  0.39040073  0.92770313    -0.77800
C122        C  0.22000333  0.41218815  0.94406515     0.83000
N123        N  0.24376747  0.42456884  0.94845983    -0.79500
C124        C  0.44284046  0.06939218  0.77201098     0.80500
N125        N  0.45572504  0.06431242  0.74850053    -0.77800
C126        C  0.44930994  0.07865122  0.72598049     0.82900
N127        N  0.42973968  0.09743718  0.72705730    -0.77800
C128        C  0.41698623  0.10247119  0.75039936     0.83000
N129        N  0.42377863  0.08858324  0.77268502    -0.79500
C130        C  0.06718820  0.21602976  0.58703789     0.80500
N131        N  0.06260193  0.24058859  0.57539547    -0.77800
C132        C  0.07545287  0.26289228  0.58446750     0.82900
N133        N  0.09262680  0.26046330  0.60501386    -0.77800
C134        C  0.09770412  0.23610008  0.61620202     0.83000
N135        N  0.08500583  0.21394133  0.60716430    -0.79500
O136        O  0.47972451  0.00316601  0.95332999    -0.79900
O137        O  0.49873382  0.96708572  0.06215557    -0.79900
O138        O  0.47179791  0.95423567  0.99090246    -0.79900
O139        O  0.46490100  0.03236348  0.00673303    -0.79800
O140        O  0.49915127  0.93421099  0.01922923    -0.80000
O141        O  0.49228586  0.05035675  0.97832183    -0.79900
O142        O  0.46676999  0.99442313  0.04868274    -0.79900
O143        O  0.48991810  0.96271584  0.93864375    -0.79900
C144        C  0.47891012  0.98532480  0.93466265     1.09800
C145        C  0.47584597  0.97704568  0.06497881     1.09700
C146        C  0.47830564  0.93380974  0.00493588     1.09800
C147        C  0.47168092  0.05236739  0.99250446     1.09700
O148        O  0.54311289  0.03327410  0.99189256    -0.79900
O149        O  0.55073042  0.95576407  0.00373920    -0.80000
O150        O  0.53478255  0.98770723  0.95315691    -0.79900
O151        O  0.51594199  0.01555519  0.06418450    -0.79900
O152        O  0.54841986  0.99056324  0.04822652    -0.79900
O153        O  0.52468973  0.02870551  0.93953459    -0.79900
O154        O  0.51682335  0.05152095  0.02250323    -0.79800
O155        O  0.52305445  0.93953751  0.97518567    -0.79900
Co156      Co  0.51290967  0.01606068  0.97415549     1.51500
Co157      Co  0.52392037  0.96400462  0.03151243     1.51700
Co158      Co  0.50159812  0.97337871  0.97346641     1.51600
Co159      Co  0.49151735  0.02158904  0.03355280     1.51500
O160        O  0.50741150  0.99357596  0.00811850    -1.41800
C161        C  0.53719412  0.05269957  0.00724146     1.09700
C162        C  0.54394739  0.93679542  0.98855514     1.09800
C163        C  0.53584110  0.00628994  0.93500412     1.09800
C164        C  0.53884788  0.00559277  0.06637125     1.09700
C165        C  0.27513156  0.74319056  0.77287777     0.80500
N166        N  0.27408923  0.76374687  0.75470341    -0.77800
C167        C  0.25444740  0.76466626  0.73632992     0.82900
N168        N  0.23599256  0.74490633  0.73611144    -0.77800
C169        C  0.23685752  0.72434336  0.75411170     0.83000
N170        N  0.25639166  0.72354184  0.77257770    -0.79500
C171        C  0.43950539  0.72060006  0.92619592     0.80500
N172        N  0.41943571  0.72148417  0.90838859    -0.77800
C173        C  0.40622750  0.74468817  0.90357767     0.82900
N174        N  0.41293673  0.76730941  0.91700049    -0.77800
C175        C  0.43254570  0.76679842  0.93545585     0.83000
N176        N  0.44607724  0.74333494  0.93996677    -0.79500
C177        C  0.22819835  0.93162831  0.57835485     0.80500
N178        N  0.22779971  0.91234023  0.59789180    -0.77800
C179        C  0.25035206  0.89942730  0.60492365     0.82900
N180        N  0.27320329  0.90542115  0.59195411    -0.77800
C181        C  0.27386574  0.92422859  0.57215573     0.83000
N182        N  0.25134120  0.93764641  0.56551037    -0.79500
C183        C  0.06932130  0.57203639  0.77230722     0.80500
N184        N  0.06306764  0.55919474  0.74918131    -0.77800
C185        C  0.07803511  0.56332667  0.72668946     0.82900
N186        N  0.09880753  0.58063847  0.72739314    -0.77800
C187        C  0.10515733  0.59322444  0.75046389     0.83000
N188        N  0.09051527  0.58868588  0.77282158    -0.79500
C189        C  0.74067585  0.23187690  0.24140171     0.80500
N190        N  0.74005986  0.25156037  0.22235864    -0.77800
C191        C  0.76025623  0.26942314  0.22003667     0.82900
N192        N  0.78124983  0.26737624  0.23675153    -0.77800
C193        C  0.78206849  0.24756640  0.25566609     0.83000
N194        N  0.76165513  0.22995149  0.25802044    -0.79500
C195        C  0.93832644  0.26451885  0.41640812     0.80500
N196        N  0.92050387  0.26389598  0.39631830    -0.77800
C197        C  0.91629691  0.24109615  0.38228079     0.82900
N198        N  0.93028346  0.21854062  0.38824887    -0.77800
C199        C  0.94862161  0.21879786  0.40806609     0.83000
N200        N  0.95255141  0.24187602  0.42228235    -0.79500
C201        C  0.77728583  0.43210344  0.05861662     0.80500
N202        N  0.77662756  0.41280444  0.07801801    -0.77800
C203        C  0.75370580  0.40602327  0.09039834     0.82900
N204        N  0.73114038  0.41882100  0.08341947    -0.77800
C205        C  0.73137619  0.43859938  0.06442141     0.83000
N206        N  0.75455576  0.44524874  0.05181305    -0.79500
C207        C  0.57830718  0.07472834  0.27999802     0.80500
N208        N  0.59706781  0.09428634  0.27931091    -0.77800
C209        C  0.61046031  0.09983896  0.25631056     0.82900
N210        N  0.60532316  0.08548058  0.23396257    -0.77800
C211        C  0.58685564  0.06568217  0.23432841     0.83000
N212        N  0.57308941  0.06046196  0.25738350    -0.79500
O213        O  0.96137241  0.54022716  0.99118926    -0.79900
O214        O  0.03764093  0.54755334  0.00610482    -0.79900
O215        O  0.97497452  0.51241372  0.06304130    -0.79900
O216        O  0.00898118  0.53274953  0.95400811    -0.79800
O217        O  0.00157952  0.54498591  0.04868816    -0.80000
O218        O  0.96940406  0.52237213  0.93919822    -0.79900
O219        O  0.05523184  0.51955715  0.97816802    -0.79900
O220        O  0.94217809  0.51235220  0.02024185    -0.79900
C221        C  0.94150664  0.53349998  0.00544786     1.09800
C222        C  0.05696939  0.54098934  0.99150691     1.09700
C223        C  0.98488448  0.53574334  0.06545421     1.09800
C224        C  0.99119179  0.53450776  0.93570953     1.09700
O225        O  0.99377683  0.47620952  0.95353632    -0.79900
O226        O  0.02280151  0.49448841  0.06393954    -0.80000
O227        O  0.96319018  0.45984735  0.00491148    -0.79900
O228        O  0.03827274  0.46723752  0.99229112    -0.79900
O229        O  0.05725759  0.49407499  0.02175480    -0.79900
O230        O  0.94669372  0.48800611  0.97618997    -0.79900
O231        O  0.03384301  0.48683684  0.93994039    -0.79800
O232        O  0.99748740  0.46182210  0.04871393    -0.79900
Co233      Co  0.97991992  0.50986380  0.97390995     1.51500
Co234      Co  0.02795491  0.51989465  0.03319162     1.51700
Co235      Co  0.97141944  0.48699979  0.03243356     1.51600
Co236      Co  0.02160217  0.49843449  0.97455711     1.51500
O237        O  0.00003621  0.50386752  0.00852171    -1.41800
C238        C  0.01190629  0.47558354  0.93533282     1.09700
C239        C  0.01301563  0.47108357  0.06620415     1.09800
C240        C  0.94438719  0.46661409  0.98984532     1.09800
C241        C  0.05759485  0.47288076  0.00728926     1.09700
C242        C  0.23263454  0.05808824  0.41830592     0.80500
N243        N  0.23099073  0.07562654  0.39732675    -0.77800
C244        C  0.25293244  0.08761313  0.38729119     0.82900
N245        N  0.27656175  0.08238400  0.39849595    -0.77800
C246        C  0.27865659  0.06559800  0.41988105     0.83000
N247        N  0.25657175  0.05319350  0.42990601    -0.79500
C248        C  0.23712126  0.26704420  0.24524473     0.80500
N249        N  0.23569678  0.24578629  0.26239260    -0.77800
C250        C  0.25227081  0.22453924  0.25942954     0.82900
N251        N  0.27040216  0.22461136  0.23925329    -0.77800
C252        C  0.27190957  0.24587665  0.22203267     0.83000
N253        N  0.25520622  0.26705374  0.22507223    -0.79500
C254        C  0.08849978  0.43768120  0.27872214     0.80500
N255        N  0.07548576  0.44354020  0.25543358    -0.77800
C256        C  0.08291125  0.43108632  0.23224194     0.82900
N257        N  0.10318389  0.41333887  0.23261163    -0.77800
C258        C  0.11589198  0.40727678  0.25550990     0.83000
N259        N  0.10842680  0.41928665  0.27859531    -0.79500
C260        C  0.43782562  0.26854847  0.06767665     0.80500
N261        N  0.41746905  0.26819086  0.08557885    -0.77800
C262        C  0.40380325  0.24518153  0.09053060     0.82900
N263        N  0.41045527  0.22238848  0.07735485    -0.77800
C264        C  0.43046109  0.22231116  0.05913462     0.83000
N265        N  0.44433468  0.24549323  0.05428428    -0.79500
C266        C  0.77418514  0.27573213  0.75698113     0.80500
N267        N  0.77499478  0.25617172  0.73808242    -0.77800
C268        C  0.75721818  0.23568226  0.73883281     0.82900
N269        N  0.73856965  0.23489865  0.75845297    -0.77800
C270        C  0.73771933  0.25434284  0.77739068     0.83000
N271        N  0.75554692  0.27475194  0.77661560    -0.79500
C272        C  0.92260298  0.44619786  0.72733804     0.80500
N273        N  0.93643520  0.45252002  0.74983972    -0.77800
C274        C  0.92984264  0.44058250  0.77372820     0.82900
N275        N  0.90952283  0.42271894  0.77481368    -0.77800
C276        C  0.89600291  0.41627998  0.75253262     0.83000
N277        N  0.90273033  0.42788713  0.72891381    -0.79500
C278        C  0.57538890  0.22101941  0.93448936     0.80500
N279        N  0.59541281  0.22211999  0.91630151    -0.77800
C280        C  0.60150441  0.24535523  0.90342820     0.82900
N281        N  0.58718413  0.26773170  0.90839390    -0.77800
C282        C  0.56663354  0.26721147  0.92601340     0.83000
N283        N  0.56075409  0.24372725  0.93944483    -0.79500
C284        C  0.73060793  0.08399613  0.56893815     0.80500
N285        N  0.75397038  0.07253601  0.56153114    -0.77800
C286        C  0.77649438  0.07852948  0.57493322     0.82900
N287        N  0.77562119  0.09621216  0.59544197    -0.77800
C288        C  0.75251549  0.10766763  0.60302875     0.83000
N289        N  0.72995577  0.10141821  0.58986431    -0.79500
C290        C  0.73825438  0.75785231  0.27054902     0.80500
N291        N  0.75610989  0.73752090  0.27232013    -0.77800
C292        C  0.75535961  0.71670216  0.25490185     0.82900
N293        N  0.73672208  0.71631218  0.23552256    -0.77800
C294        C  0.71880937  0.73657382  0.23357695     0.83000
N295        N  0.71961262  0.75735238  0.25113582    -0.79500
C296        C  0.72920565  0.92043133  0.43169879     0.80500
N297        N  0.72734952  0.90166771  0.41206741    -0.77800
C298        C  0.74937382  0.89208175  0.39984716     0.82900
N299        N  0.77331270  0.90137972  0.40724238    -0.77800
C300        C  0.77552057  0.92066389  0.42615952     0.83000
N301        N  0.75339793  0.93026126  0.43855021    -0.79500
C302        C  0.92124244  0.56704479  0.23624680     0.80500
N303        N  0.93260488  0.55685310  0.25890117    -0.77800
C304        C  0.92151272  0.56226518  0.28333286     0.82900
N305        N  0.89965748  0.57811288  0.28482761    -0.77800
C306        C  0.88832494  0.58791863  0.26238217     0.83000
N307        N  0.89902338  0.58214576  0.23828936    -0.79500
C308        C  0.57446872  0.76723082  0.06109812     0.80500
N309        N  0.56061104  0.74457930  0.05431919    -0.77800
C310        C  0.56489197  0.72091404  0.06795682     0.82900
N311        N  0.58299697  0.72023462  0.08791404    -0.77800
C312        C  0.59635499  0.74263631  0.09491611     0.83000
N313        N  0.59196366  0.76599094  0.08154468    -0.79500
C314        C  0.24260960  0.74610758  0.27290410     0.80500
N315        N  0.26447982  0.76187153  0.27384513    -0.77800
C316        C  0.28220872  0.76174152  0.25339824     0.82900
N317        N  0.27797368  0.74582469  0.23189282    -0.77800
C318        C  0.25615901  0.73002180  0.23073912     0.83000
N319        N  0.23849536  0.73006709  0.25137264    -0.79500
C320        C  0.45692754  0.90575358  0.28225815     0.80500
N321        N  0.46271655  0.91799352  0.25826018    -0.77800
C322        C  0.45053775  0.90936535  0.23558193     0.82900
N323        N  0.43269760  0.88911744  0.23721502    -0.77800
C324        C  0.42641222  0.87743666  0.26084980     0.83000
N325        N  0.43857834  0.88569480  0.28337269    -0.79500
C326        C  0.08020681  0.77454410  0.42876707     0.80500
N327        N  0.07278530  0.75179243  0.44242544    -0.77800
C328        C  0.08599096  0.72823885  0.43829588     0.82900
N329        N  0.10627124  0.72760927  0.42041385    -0.77800
C330        C  0.11399072  0.75014699  0.40712612     0.83000
N331        N  0.10099056  0.77362048  0.41138000    -0.79500
C332        C  0.26817994  0.57596190  0.06410428     0.80500
N333        N  0.26800215  0.59512070  0.08327341    -0.77800
C334        C  0.24553505  0.60834292  0.08987296     0.82900
N335        N  0.22279877  0.60233678  0.07709945    -0.77800
C336        C  0.22251427  0.58342003  0.05750502     0.83000
N337        N  0.24533341  0.57011724  0.05096183    -0.79500
O338        O  0.99913317  0.95807247  0.54140763    -0.79900
O339        O  0.01193784  0.03367416  0.53465042    -0.79900
O340        O  0.05016188  0.98808358  0.52840173    -0.79900
O341        O  0.94306913  0.01943503  0.50414933    -0.79800
O342        O  0.06425191  0.02885710  0.51805448    -0.80000
O343        O  0.95696679  0.99397324  0.53765118    -0.79900
O344        O  0.98460510  0.05422687  0.50671051    -0.79900
O345        O  0.02787928  0.94003973  0.51491030    -0.79900
C346        C  0.01323059  0.93806076  0.53543115     1.09800
C347        C  0.99787180  0.05391669  0.52843476     1.09700
C348        C  0.06777541  0.00671430  0.53029251     1.09800
C349        C  0.94018571  0.00997138  0.52758425     1.09700
O350        O  0.94444394  0.97111757  0.48674437    -0.79900
O351        O  0.05301726  0.00397867  0.47172202    -0.80000
O352        O  0.01638882  0.95711593  0.46241647    -0.79900
O353        O  0.00228998  0.03479536  0.45419562    -0.79900
O354        O  0.02868583  0.05152337  0.48363115    -0.79900
O355        O  0.98608785  0.93751191  0.48829848    -0.79900
O356        O  0.96004522  0.99812328  0.45475656    -0.79800
O357        O  0.06676795  0.96343451  0.48341826    -0.79900
Co358      Co  0.97336698  0.96707045  0.51331142     1.51500
Co359      Co  0.03096601  0.01688928  0.50459426     1.51700
Co360      Co  0.03194729  0.97465975  0.49379759     1.51600
Co361      Co  0.97436409  0.02472567  0.48039965     1.51500
O362        O  0.99774402  0.99572618  0.49741644    -1.41800
C363        C  0.94349665  0.98069931  0.46315676     1.09700
C364        C  0.07098901  0.98552960  0.47120483     1.09800
C365        C  0.00145136  0.93724187  0.46782018     1.09800
C366        C  0.01666167  0.05401583  0.46169430     1.09700
C367        C  0.02942816  0.88224751  0.43518325     0.30000
C368        C  0.04991708  0.86919664  0.42132351    -0.36300
C369        C  0.05294822  0.84156052  0.42673011     0.16000
C370        C  0.03686053  0.82760983  0.44442797     0.21800
C371        C  0.01605224  0.84054393  0.45788089    -0.34400
C372        C  0.01301311  0.86818772  0.45248402     0.15900
O373        O  0.02562852  0.90855659  0.43625702    -0.26400
C374        C  0.00630956  0.91143705  0.45424204     0.05700
C375        C  0.99747057  0.88688640  0.46466757    -0.31300
O376        O  0.04421592  0.80224188  0.44764492    -0.23200
C377        C  0.06530274  0.79990072  0.43177752    -0.03100
C378        C  0.07157643  0.82373323  0.41823430    -0.17600
H379        H  0.06343797  0.88011447  0.40833117     0.20400
H380        H  0.00383467  0.83006723  0.47246485     0.18800
H381        H  0.98397285  0.88355616  0.48127456     0.18700
H382        H  0.08778651  0.82747692  0.40445504     0.14600
C383        C  0.26256734  0.68947278  0.17415523     0.30000
C384        C  0.27645518  0.67614092  0.15388099    -0.36300
C385        C  0.26166317  0.65864397  0.13811828     0.16000
C386        C  0.23487112  0.65480263  0.14158886     0.21800
C387        C  0.22091157  0.66815902  0.16202001    -0.34400
C388        C  0.23588144  0.68535890  0.17821637     0.15900
O389        O  0.27286578  0.70595006  0.19173366    -0.26400
C390        C  0.25268014  0.71232772  0.20758961     0.05700
C391        C  0.22909809  0.70011856  0.20020015    -0.31300
O392        O  0.22523851  0.63699027  0.12470243    -0.23200
C393        C  0.24628383  0.62921940  0.11057790    -0.03100
C394        C  0.26941040  0.64202415  0.11811144    -0.17600
H395        H  0.29749041  0.67877845  0.15098278     0.20400
H396        H  0.20003052  0.66491627  0.16542022     0.18800
H397        H  0.20991785  0.70172592  0.20974152     0.18700
H398        H  0.28915320  0.63922350  0.11016471     0.14600
C399        C  0.16641637  0.76034650  0.36205491     0.30000
C400        C  0.18591108  0.77493966  0.34812428    -0.36300
C401        C  0.19968753  0.76079068  0.32824542     0.16000
C402        C  0.19439768  0.73423422  0.32216915     0.21800
C403        C  0.17537753  0.71944274  0.33656309    -0.34400
C404        C  0.16186296  0.73348411  0.35670087     0.15900
O405        O  0.15030705  0.76988707  0.38056976    -0.26400
C406        C  0.13557466  0.74872015  0.38744139     0.05700
C407        C  0.14203524  0.72548506  0.37343333    -0.31300
O408        O  0.20864295  0.72547101  0.30180866    -0.23200
C409        C  0.22352894  0.74657253  0.29509794    -0.03100
C410        C  0.21897197  0.76901962  0.31096972    -0.17600
H411        H  0.18975291  0.79597498  0.35217501     0.20400
H412        H  0.17109748  0.69858743  0.33207617     0.18800
H413        H  0.13277926  0.70584430  0.37473496     0.18700
H414        H  0.22804665  0.78873221  0.30945716     0.14600
C415        C  0.33635274  0.80197683  0.27007878     0.30000
C416        C  0.35339804  0.81621442  0.28693536    -0.36300
C417        C  0.37385598  0.83051381  0.27413092     0.16000
C418        C  0.37706214  0.83086355  0.24665890     0.21800
C419        C  0.36032200  0.81635972  0.22989457    -0.34400
C420        C  0.34008199  0.80193971  0.24267484     0.15900
O421        O  0.31543111  0.78793408  0.27756599    -0.26400
C422        C  0.30593262  0.77858367  0.25466324     0.05700
C423        C  0.32052563  0.78656198  0.23232995    -0.31300
O424        O  0.39633714  0.84678908  0.23872170    -0.23200
C425        C  0.40586303  0.85666640  0.26133038    -0.03100
C426        C  0.39279669  0.84714222  0.28410968    -0.17600
H427        H  0.35062234  0.81650682  0.30843388     0.20400
H428        H  0.36263982  0.81670179  0.20833452     0.18800
H429        H  0.31690227  0.78211971  0.21149480     0.18700
H430        H  0.39599699  0.85261784  0.30476526     0.14600
C431        C  0.83426113  0.95639652  0.43694375     0.30000
C432        C  0.85073987  0.97906427  0.43926115    -0.36300
C433        C  0.87803432  0.97387670  0.44010275     0.16000
C434        C  0.88831278  0.94813327  0.43933494     0.21800
C435        C  0.87193286  0.92557904  0.43659266    -0.34400
C436        C  0.84478949  0.93079471  0.43534309     0.15900
O437        O  0.80817818  0.95640981  0.43546192    -0.26400
C438        C  0.80210183  0.93045622  0.43267596     0.05700
C439        C  0.82410820  0.91370930  0.43244112    -0.31300
O440        O  0.91382150  0.94753620  0.44430063    -0.23200
C441        C  0.92033736  0.97329155  0.44747460    -0.03100
C442        C  0.89881754  0.99058781  0.44495887    -0.17600
H443        H  0.84283528  0.99926761  0.44079515     0.20400
H444        H  0.87976001  0.90527906  0.43622514     0.18800
H445        H  0.82474854  0.89208340  0.42975295     0.18700
H446        H  0.89797520  0.01183190  0.44968515     0.14600
C447        C  0.67063122  0.75041513  0.18551228     0.30000
C448        C  0.65307588  0.76659444  0.17098180    -0.36300
C449        C  0.63968398  0.75388057  0.15016163     0.16000
C450        C  0.64290718  0.72692780  0.14428621     0.21800
C451        C  0.66070921  0.71075312  0.15867495    -0.34400
C452        C  0.67445385  0.72362162  0.17927634     0.15900
O453        O  0.68538518  0.75835071  0.20557270    -0.26400
C454        C  0.69907752  0.73646323  0.21217252     0.05700
C455        C  0.69317110  0.71422898  0.19644422    -0.31300
O456        O  0.62797116  0.71921286  0.12420338    -0.23200
C457        C  0.61538165  0.74164907  0.11694485    -0.03100
C458        C  0.62198616  0.76383665  0.13231561    -0.17600
H459        H  0.65020909  0.78771102  0.17547431     0.20400
H460        H  0.66374090  0.68968540  0.15403867     0.18800
H461        H  0.70147730  0.69413911  0.19752063     0.18700
H462        H  0.61455677  0.78424633  0.13073865     0.14600
C463        C  0.83296501  0.62782619  0.25050320     0.30000
C464        C  0.81316507  0.63947134  0.23482503    -0.36300
C465        C  0.79922984  0.66071719  0.24655717     0.16000
C466        C  0.80452486  0.67008521  0.27190647     0.21800
C467        C  0.82404674  0.65806205  0.28784094    -0.34400
C468        C  0.83785065  0.63656281  0.27617620     0.15900
O469        O  0.84957515  0.60905345  0.24268386    -0.26400
C470        C  0.86509076  0.60537822  0.26370776     0.05700
C471        C  0.85861108  0.62171891  0.28528972    -0.31300
O472        O  0.78984306  0.69106520  0.27829743    -0.23200
C473        C  0.77480594  0.69488245  0.25685841    -0.03100
C474        C  0.77973154  0.67654695  0.23654917    -0.17600
H475        H  0.80934049  0.63286279  0.21462607     0.20400
H476        H  0.82853697  0.66532391  0.30766687     0.18800
H477        H  0.86871378  0.62351657  0.30420806     0.18700
H478        H  0.77066419  0.67545226  0.21703901     0.14600
C479        C  0.73271962  0.84686988  0.34896542     0.30000
C480        C  0.71659291  0.83432801  0.32998784    -0.36300
C481        C  0.72849569  0.81371926  0.31500208     0.16000
C482        C  0.75434783  0.80581569  0.31872057     0.21800
C483        C  0.77054465  0.81861269  0.33732301    -0.34400
C484        C  0.75875957  0.83934752  0.35204043     0.15900
O485        O  0.72568188  0.86629068  0.36550340    -0.26400
C486        C  0.74763188  0.87138304  0.37905155     0.05700
C487        C  0.76881822  0.85530061  0.37142065    -0.31300
O488        O  0.76114207  0.78535489  0.30351294    -0.23200
C489        C  0.73950080  0.78022750  0.28957029    -0.03100
C490        C  0.71857398  0.79734797  0.29571371    -0.17600
H491        H  0.69617613  0.84006280  0.32726231     0.20400
H492        H  0.79086234  0.81263170  0.34030376     0.18800
H493        H  0.78866986  0.85518283  0.37928454     0.18700
H494        H  0.69878097  0.79718795  0.28772328     0.14600
C495        C  0.87413573  0.02263652  0.54022841     0.30000
C496        C  0.84770269  0.02522295  0.53253777    -0.36300
C497        C  0.83191343  0.04168143  0.54867867     0.16000
C498        C  0.84154047  0.05477674  0.57082777     0.21800
C499        C  0.86802631  0.05205385  0.57862624    -0.34400
C500        C  0.88384130  0.03538934  0.56255112     0.15900
O501        O  0.89269421  0.01035969  0.52649703    -0.26400
C502        C  0.91458394  0.01477903  0.54028873     0.05700
C503        C  0.91037668  0.03020994  0.56304621    -0.31300
O504        O  0.82338776  0.06958609  0.58270925    -0.23200
C505        C  0.80185138  0.06581850  0.56806752    -0.03100
C506        C  0.80599446  0.04866863  0.54657009    -0.17600
H507        H  0.84016740  0.01562453  0.51476437     0.20400
H508        H  0.87585562  0.06262045  0.59569738     0.18800
H509        H  0.92496553  0.03849621  0.57638648     0.18700
H510        H  0.79199137  0.04232069  0.53162289     0.14600
C511        C  0.76679812  0.15531158  0.65217775     0.30000
C512        C  0.78278359  0.17312333  0.66652707    -0.36300
C513        C  0.76995710  0.18834366  0.68625834     0.16000
C514        C  0.74334138  0.18580199  0.69182906     0.21800
C515        C  0.72731510  0.16819194  0.67728855    -0.34400
C516        C  0.74004646  0.15332349  0.65722847     0.15900
O517        O  0.77462372  0.13936669  0.63270726    -0.26400
C518        C  0.75256607  0.12726332  0.62492295     0.05700
C519        C  0.73038689  0.13520112  0.63941336    -0.31300
O520        O  0.73548911  0.20178518  0.71127182    -0.23200
C521        C  0.75725602  0.21502321  0.71797192    -0.03100
C522        C  0.77931611  0.20758686  0.70302661    -0.17600
H523        H  0.80370013  0.17513809  0.66242587     0.20400
H524        H  0.70635301  0.16638411  0.68120069     0.18800
H525        H  0.71020445  0.12848554  0.63722734     0.18700
H526        H  0.79928486  0.21517040  0.70443149     0.14600
C527        C  0.68769818  0.23826805  0.82332782     0.30000
C528        C  0.66981046  0.22143910  0.83692588    -0.36300
C529        C  0.65301062  0.23413410  0.85529396     0.16000
C530        C  0.65346619  0.26157438  0.85970059     0.21800
C531        C  0.67165165  0.27837021  0.84639090    -0.34400
C532        C  0.68874339  0.26559279  0.82829092     0.15900
O533        O  0.70478458  0.23072163  0.80486564    -0.26400
C534        C  0.71721454  0.25341453  0.79820314     0.05700
C535        C  0.70818509  0.27576360  0.81220403    -0.31300
O536        O  0.63534959  0.26923416  0.87712026    -0.23200
C537        C  0.62343669  0.24633906  0.88417689    -0.03100
C538        C  0.63366972  0.22384078  0.87135414    -0.17600
H539        H  0.66894497  0.19997014  0.83331054     0.20400
H540        H  0.67232416  0.29988476  0.84979405     0.18800
H541        H  0.71456460  0.29651902  0.81027989     0.18700
H542        H  0.62741770  0.20304109  0.87325406     0.14600
C543        C  0.84946783  0.36571354  0.74114138     0.30000
C544        C  0.83635172  0.34613967  0.72615370    -0.36300
C545        C  0.81964943  0.32879273  0.74063831     0.16000
C546        C  0.81557631  0.33096966  0.76789765     0.21800
C547        C  0.82875058  0.35051941  0.78291616    -0.34400
C548        C  0.84593207  0.36748812  0.76850871     0.15900
O549        O  0.86696881  0.38311234  0.73185516    -0.26400
C550        C  0.87499107  0.39597573  0.75358097     0.05700
C551        C  0.86258021  0.38713774  0.77697617    -0.31300
O552        O  0.79901615  0.31265965  0.77729933    -0.23200
C553        C  0.79277782  0.29834744  0.75583976    -0.03100
C554        C  0.80508258  0.30739095  0.73249663    -0.17600
H555        H  0.83942702  0.34417853  0.70479147     0.20400
H556        H  0.82619528  0.35203044  0.80438437     0.18800
H557        H  0.86576903  0.39385245  0.79726306     0.18700
H558        H  0.80328076  0.29951975  0.71244382     0.14600
C559        C  0.31919401  0.23246746  0.17234744     0.30000
C560        C  0.33561304  0.21652375  0.15618426    -0.36300
C561        C  0.35259821  0.23054511  0.13868558     0.16000
C562        C  0.35358026  0.25833674  0.13736881     0.21800
C563        C  0.33685758  0.27426289  0.15321552    -0.34400
C564        C  0.31966851  0.26024709  0.17048659     0.15900
O565        O  0.30236274  0.22365171  0.19068791    -0.26400
C566        C  0.29167709  0.24607809  0.20040220     0.05700
C567        C  0.30156260  0.26943502  0.18848137    -0.31300
O568        O  0.37163342  0.26722221  0.12030200    -0.23200
C569        C  0.38217171  0.24483002  0.11034583    -0.03100
C570        C  0.37100607  0.22140884  0.12096292    -0.17600
H571        H  0.33536766  0.19471927  0.15737511     0.20400
H572        H  0.33738706  0.29607102  0.15232618     0.18800
H573        H  0.29660081  0.29015705  0.19294937     0.18700
H574        H  0.37610270  0.20068845  0.11662766     0.14600
C575        C  0.16118237  0.35512224  0.26607849     0.30000
C576        C  0.17334014  0.33378051  0.27985305    -0.36300
C577        C  0.19092555  0.31808276  0.26474195     0.16000
C578        C  0.19643457  0.32329419  0.23807419     0.21800
C579        C  0.18411595  0.34438037  0.22428097    -0.34400
C580        C  0.16635087  0.35980745  0.23925663     0.15900
O581        O  0.14337562  0.37185768  0.27587614    -0.26400
C582        C  0.13701323  0.38716788  0.25491857     0.05700
C583        C  0.15066021  0.38055483  0.23166424    -0.31300
O584        O  0.21357632  0.30625974  0.22783757    -0.23200
C585        C  0.21891505  0.28971498  0.24809293    -0.03100
C586        C  0.20533539  0.29595884  0.27155017    -0.17600
H587        H  0.16912179  0.32949426  0.30073449     0.20400
H588        H  0.18788953  0.34828847  0.20324510     0.18800
H589        H  0.14879247  0.38938765  0.21187920     0.18700
H590        H  0.20610735  0.28576094  0.29077001     0.14600
C591        C  0.16806789  0.03450050  0.42749170     0.30000
C592        C  0.14092922  0.03387735  0.42244159    -0.36300
C593        C  0.12621574  0.01507450  0.43727309     0.16000
C594        C  0.13737218  0.99784978  0.45581725     0.21800
C595        C  0.16469698  0.99853172  0.46096658    -0.34400
C596        C  0.17950733  0.01756367  0.44612114     0.15900
O597        O  0.18520271  0.05080300  0.41591831    -0.26400
C598        C  0.20812221  0.04453045  0.42716702     0.05700
C599        C  0.20585262  0.02395263  0.44625125    -0.31300
O600        O  0.11941399  0.98330874  0.46875545    -0.23200
C601        C  0.09655970  0.99142215  0.45831387    -0.03100
C602        C  0.09968645  0.01116142  0.43867503    -0.17600
H603        H  0.13181358  0.04755745  0.40827173     0.20400
H604        H  0.17364068  0.98562650  0.47593361     0.18800
H605        H  0.22129345  0.01489293  0.45816827     0.18700
H606        H  0.08446600  0.02241458  0.42837048     0.14600
C607        C  0.23813025  0.13759044  0.33996516     0.30000
C608        C  0.22361194  0.15868386  0.32835634    -0.36300
C609        C  0.23683523  0.17380634  0.30855549     0.16000
C610        C  0.26235883  0.16823191  0.30040461     0.21800
C611        C  0.27686373  0.14729306  0.31206621    -0.34400
C612        C  0.26383973  0.13251288  0.33211754     0.15900
O613        O  0.23031079  0.12174768  0.35983256    -0.26400
C614        C  0.25144189  0.10664755  0.36482525     0.05700
C615        C  0.27281544  0.11246033  0.34821189    -0.31300
O616        O  0.27100808  0.18504259  0.28181806    -0.23200
C617        C  0.25088908  0.20179754  0.27820156    -0.03100
C618        C  0.22911280  0.19589558  0.29434123    -0.17600
H619        H  0.20368534  0.16337950  0.33474923     0.20400
H620        H  0.29710271  0.14320258  0.30632922     0.18800
H621        H  0.29237463  0.10368334  0.34851675     0.18700
H622        H  0.21041553  0.20641124  0.29545624     0.14600
C623        C  0.97996568  0.44891693  0.88025951     0.30000
C624        C  0.95844713  0.43690102  0.86769618    -0.36300
C625        C  0.95586518  0.44222343  0.84031364     0.16000
C626        C  0.97316327  0.45829412  0.82591826     0.21800
C627        C  0.99494211  0.47033317  0.83856014    -0.34400
C628        C  0.99766192  0.46484183  0.86616779     0.15900
O629        O  0.98431620  0.44870782  0.90620295    -0.26400
C630        C  0.00539285  0.46431486  0.90906640     0.05700
C631        C  0.01471597  0.47481047  0.88476475    -0.31300
O632        O  0.96644386  0.46055321  0.80035799    -0.23200
C633        C  0.94457890  0.44566196  0.79864641    -0.03100
C634        C  0.93721076  0.43396186  0.82296067    -0.17600
H635        H  0.94421659  0.42479546  0.87871249     0.20400
H636        H  0.00848810  0.48343858  0.82779927     0.18800
H637        H  0.02988143  0.48990494  0.88165263     0.18700
H638        H  0.92051751  0.42095076  0.82722116     0.14600
C639        C  0.95893217  0.55579626  0.17772376     0.30000
C640        C  0.98094989  0.54876673  0.16193044    -0.36300
C641        C  0.97810753  0.55209258  0.13407126     0.16000
C642        C  0.95506740  0.56120109  0.12252609     0.21800
C643        C  0.93327282  0.56849937  0.13826555    -0.34400
C644        C  0.93621221  0.56545185  0.16598539     0.15900
O645        O  0.95689152  0.55416233  0.20417174    -0.26400
C646        C  0.93252569  0.56300552  0.20923449     0.05700
C647        C  0.91890022  0.57021681  0.18617399    -0.31300
O648        O  0.95539909  0.55934722  0.09618456    -0.23200
C649        C  0.97928427  0.54974902  0.09055537    -0.03100
C650        C  0.99422604  0.54483868  0.11338528    -0.17600
H651        H  0.99879097  0.54068073  0.17065733     0.20400
H652        H  0.91494404  0.57525177  0.12946341     0.18800
H653        H  0.89905638  0.57814078  0.18454579     0.18700
H654        H  0.01294610  0.53439607  0.11466058     0.14600
C655        C  0.03961727  0.43958309  0.12228974     0.30000
C656        C  0.05953203  0.42632180  0.13659099    -0.36300
C657        C  0.06040103  0.43146427  0.16416251     0.16000
C658        C  0.04297771  0.44845857  0.17707112     0.21800
C659        C  0.02281659  0.46150873  0.16279392    -0.34400
C660        C  0.02185743  0.45626403  0.13515882     0.15900
O661        O  0.03721153  0.44030387  0.09593823    -0.26400
C662        C  0.01719914  0.45716802  0.09185315     0.05700
C663        C  0.00699856  0.46768155  0.11555670    -0.31300
O664        O  0.04828050  0.45107882  0.20288928    -0.23200
C665        C  0.06939618  0.43547588  0.20642865    -0.03100
C666        C  0.07764843  0.42285840  0.18297178    -0.17600
H667        H  0.07401867  0.41369898  0.12674261     0.20400
H668        H  0.00936275  0.47546052  0.17235195     0.18800
H669        H  0.99258664  0.48364182  0.11775668     0.18700
H670        H  0.09422413  0.40936720  0.18012748     0.14600
C671        C  0.12416882  0.55468572  0.99938981     0.30000
C672        C  0.15107862  0.54755697  0.99965692    -0.36300
C673        C  0.16714959  0.56190256  0.01743415     0.16000
C674        C  0.15735923  0.58198838  0.03366732     0.21800
C675        C  0.13056647  0.58931105  0.03318864    -0.34400
C676        C  0.11450618  0.57490737  0.01554178     0.15900
O677        O  0.10519168  0.54171912  0.98686492    -0.26400
C678        C  0.08303768  0.55376764  0.99500989     0.05700
C679        C  0.08772680  0.57476282  0.01270359    -0.31300
O680        O  0.17546850  0.59196641  0.04962353    -0.23200
C681        C  0.19730629  0.57821918  0.04362939    -0.03100
C682        C  0.19330205  0.55917954  0.02367949    -0.17600
H683        H  0.15871139  0.53114897  0.98771244     0.20400
H684        H  0.12259176  0.60448141  0.04645221     0.18800
H685        H  0.07336917  0.58635017  0.02392260     0.18700
H686        H  0.20744857  0.54516086  0.01531758     0.14600
C687        C  0.84253940  0.43163981  0.03472067     0.30000
C688        C  0.86889772  0.42296111  0.03409994    -0.36300
C689        C  0.88551296  0.43599864  0.01556709     0.16000
C690        C  0.87677358  0.45621018  0.99871859     0.21800
C691        C  0.85022108  0.46465855  0.99908452    -0.34400
C692        C  0.83358123  0.45171254  0.01782772     0.15900
O693        O  0.82403535  0.42268220  0.05113303    -0.26400
C694        C  0.80274886  0.43706709  0.04483588     0.05700
C695        C  0.80748961  0.45557904  0.02420697    -0.31300
O696        O  0.89633107  0.46782634  0.98536505    -0.23200
C697        C  0.91788158  0.45487328  0.99369314    -0.03100
C698        C  0.91222318  0.43463176  0.01229496    -0.17600
H699        H  0.87615786  0.40771963  0.04780757     0.20400
H700        H  0.84326601  0.48083819  0.98632147     0.18800
H701        H  0.79380661  0.46971971  0.01527835     0.18700
H702        H  0.92600721  0.42272539  0.02387187     0.14600
C703        C  0.99799791  0.11131064  0.42495116     0.30000
C704        C  0.98298213  0.12534234  0.40587540    -0.36300
C705        C  0.97844071  0.15277905  0.41092872     0.16000
C706        C  0.98814916  0.16575563  0.43311082     0.21800
C707        C  0.00373341  0.15185674  0.45190056    -0.34400
C708        C  0.00822832  0.12433575  0.44687396     0.15900
O709        O  0.00138195  0.08489059  0.42612418    -0.26400
C710        C  0.01438448  0.08086184  0.44887390     0.05700
C711        C  0.01938272  0.10477933  0.46244787    -0.31300
O712        O  0.97955327  0.19091151  0.43496554    -0.23200
C713        C  0.96407052  0.19403204  0.41369172    -0.03100
C714        C  0.96284936  0.17096767  0.39800940    -0.17600
H715        H  0.97415334  0.11521463  0.38905827     0.20400
H716        H  0.01073709  0.16146190  0.46988278     0.18800
H717        H  0.02747587  0.10707781  0.48229891     0.18700
H718        H  0.95129990  0.16774295  0.38018172     0.14600
C719        C  0.69190962  0.18542197  0.26055606     0.30000
C720        C  0.67685608  0.16934416  0.27819559    -0.36300
C721        C  0.65849267  0.15209375  0.26625469     0.16000
C722        C  0.65543371  0.15059968  0.23886468     0.24400
C723        C  0.67002594  0.16707556  0.22131753    -0.34400
C724        C  0.68810143  0.18451816  0.23323965     0.15900
O725        O  0.71093805  0.20219484  0.26716531    -0.26400
C726        C  0.71897290  0.21247073  0.24379548     0.05700
C727        C  0.70538509  0.20235299  0.22203754    -0.31300
O728        O  0.63821388  0.13213110  0.23188312    -0.23200
C729        C  0.62986090  0.12179708  0.25506760    -0.03100
C730        C  0.64161057  0.13357799  0.27719765    -0.17600
H731        H  0.67957642  0.16991795  0.29965771     0.20400
H732        H  0.66772314  0.16606750  0.19982506     0.18800
H733        H  0.70842624  0.20686960  0.20100419     0.18700
H734        H  0.63866084  0.12868698  0.29816672     0.14600
C735        C  0.74465901  0.31777242  0.17091723     0.30000
C736        C  0.72837945  0.33277463  0.15366593    -0.36300
C737        C  0.74102104  0.35282532  0.13823324     0.16000
C738        C  0.76784991  0.35744595  0.13944172     0.21800
C739        C  0.78401666  0.34265992  0.15681827    -0.34400
C740        C  0.77136364  0.32293454  0.17246649     0.15900
O741        O  0.73714744  0.29810502  0.18723135    -0.26400
C742        C  0.75931381  0.29086309  0.19954938     0.05700
C743        C  0.78117984  0.30567288  0.19117913    -0.31300
O744        O  0.77571623  0.37666019  0.12288680    -0.23200
C745        C  0.75364202  0.38476743  0.11107268    -0.03100
C746        C  0.73136328  0.37074490  0.11989328    -0.17600
H747        H  0.70737205  0.32911801  0.15240982     0.20400
H748        H  0.80502052  0.34631475  0.15807175     0.18800
H749        H  0.80138650  0.30385250  0.19782216     0.18700
H750        H  0.71116024  0.37310575  0.11339178     0.14600
C751        C  0.83722136  0.25620263  0.29669286     0.30000
C752        C  0.85685944  0.27070126  0.30997497    -0.36300
C753        C  0.87143459  0.25622235  0.32901795     0.16000
C754        C  0.86748329  0.22915005  0.33427073     0.21800
C755        C  0.84775385  0.21465159  0.32103041    -0.34400
C756        C  0.83275928  0.22929864  0.30238672     0.15900
O757        O  0.82045710  0.26607261  0.27906479    -0.26400
C758        C  0.80480199  0.24532068  0.27367152     0.05700
C759        C  0.81152824  0.22192953  0.28759061    -0.31300
O760        O  0.88313601  0.21983956  0.35326633    -0.23200
C761        C  0.89698732  0.24137010  0.36045372    -0.03100
C762        C  0.89046056  0.26452535  0.34610341    -0.17600
H763        H  0.86008618  0.29197935  0.30623665     0.20400
H764        H  0.84390734  0.19360938  0.32544873     0.18800
H765        H  0.80190542  0.20245963  0.28713852     0.18700
H766        H  0.89843539  0.28463735  0.34820069     0.14600
C767        C  0.00267670  0.55199374  0.86887003     0.30000
C768        C  0.00190430  0.54737462  0.84111209    -0.36300
C769        C  0.02316691  0.55776004  0.82599366     0.16000
C770        C  0.04345657  0.57207586  0.83744684     0.21800
C771        C  0.04407087  0.57696257  0.86500787    -0.34400
C772        C  0.02309969  0.56630491  0.88009457     0.15900
O773        O  0.98700329  0.54098345  0.88718037    -0.26400
C774        C  0.99757041  0.54835906  0.91035526     0.05700
C775        C  0.01994660  0.56428514  0.90707133    -0.31300
O776        O  0.06196871  0.57882758  0.82006186    -0.23200
C777        C  0.05368247  0.56864999  0.79705847    -0.03100
C778        C  0.02958377  0.55528834  0.79946220    -0.17600
H779        H  0.98658004  0.53530949  0.83216339     0.20400
H780        H  0.06045742  0.58725126  0.87422815     0.18800
H781        H  0.03347906  0.57098149  0.92231693     0.18700
H782        H  0.01864021  0.54502531  0.78406645     0.14600
C783        C  0.13325939  0.99508730  0.54770904     0.30000
C784        C  0.16070477  0.99530547  0.54320738    -0.36300
C785        C  0.17518311  0.97479006  0.55598283     0.16000
C786        C  0.16338934  0.95556688  0.57223046     0.21800
C787        C  0.13606809  0.95532444  0.57666879    -0.34400
C788        C  0.12165238  0.97565899  0.56384464     0.15900
O789        O  0.11562960  0.01052315  0.53567994    -0.26400
C790        C  0.09251412  0.00080241  0.54424723     0.05700
C791        C  0.09514628  0.97918448  0.56187199    -0.31300
O792        O  0.18039625  0.93803307  0.58194500    -0.23200
C793        C  0.20350551  0.94589036  0.57178274    -0.03100
C794        C  0.20148215  0.96863750  0.55535603    -0.17600
H795        H  0.17005596  0.00997821  0.52988002     0.20400
H796        H  0.12656318  0.93979810  0.58877876     0.18800
H797        H  0.07973265  0.96633579  0.57003538     0.18700
H798        H  0.21713050  0.97917442  0.54465381     0.14600
C799        C  0.15349411  0.64240764  0.73899727     0.30000
C800        C  0.16728922  0.66213091  0.72434553    -0.36300
C801        C  0.18610236  0.67680081  0.73858297     0.16000
C802        C  0.19135462  0.67216628  0.76530895     0.21800
C803        C  0.17725584  0.65270387  0.78008581    -0.34400
C804        C  0.15815097  0.63827733  0.76592225     0.15900
O805        O  0.13478097  0.62661587  0.72976762    -0.26400
C806        C  0.12712207  0.61244050  0.75114018     0.05700
C807        C  0.14088842  0.61889001  0.77421001    -0.31300
O808        O  0.21014799  0.68798697  0.77442218    -0.23200
C809        C  0.21670671  0.70313108  0.75330173    -0.03100
C810        C  0.20229491  0.69715862  0.73053601    -0.17600
H811        H  0.16349969  0.66589938  0.70334741     0.20400
H812        H  0.18081949  0.64916256  0.80116035     0.18800
H813        H  0.13836930  0.61060901  0.79418055     0.18700
H814        H  0.20374647  0.70635879  0.71085481     0.14600
C815        C  0.26429634  0.81874118  0.69173180     0.30000
C816        C  0.27871212  0.83850002  0.67775086    -0.36300
C817        C  0.26474667  0.85325129  0.65844917     0.16000
C818        C  0.23827708  0.84926099  0.65346028     0.21800
C819        C  0.22387518  0.82933345  0.66732608    -0.34400
C820        C  0.23797706  0.81425589  0.68635634     0.15900
O821        O  0.27357298  0.80226425  0.71027363    -0.26400
C822        C  0.25299658  0.78681057  0.71666095     0.05700
C823        C  0.23035454  0.79330292  0.70235978    -0.31300
O824        O  0.22932887  0.86529937  0.63432721    -0.23200
C825        C  0.25048951  0.87942600  0.62679236    -0.03100
C826        C  0.27302453  0.87274642  0.64110082    -0.17600
H827        H  0.29946745  0.84187844  0.68139208     0.20400
H828        H  0.20324766  0.82558338  0.66330106     0.18800
H829        H  0.21110835  0.78388353  0.70357469     0.18700
H830        H  0.29270213  0.88098867  0.63888609     0.14600
C831        C  0.32640901  0.75581937  0.81793940     0.30000
C832        C  0.34508672  0.77151459  0.83137657    -0.36300
C833        C  0.35918207  0.75840306  0.85173264     0.16000
C834        C  0.35557324  0.73151418  0.85805174     0.21800
C835        C  0.33671426  0.71586532  0.84478712    -0.34400
C836        C  0.32227364  0.72912602  0.82475045     0.15900
O837        O  0.31076072  0.76414335  0.79857088    -0.26400
C838        C  0.29616394  0.74261076  0.79308043     0.05700
C839        C  0.30245205  0.72022649  0.80877491    -0.31300
O840        O  0.37148840  0.72317354  0.87718494    -0.23200
C841        C  0.38514413  0.74511989  0.88351396    -0.03100
C842        C  0.37823127  0.76767742  0.86843087    -0.17600
H843        H  0.34827889  0.79255145  0.82642020     0.20400
H844        H  0.33346046  0.69484679  0.84980952     0.18800
H845        H  0.29362783  0.70035634  0.80849654     0.18700
H846        H  0.38655493  0.78775074  0.86918237     0.14600
C847        C  0.57224723  0.87760204  0.01349294     0.30000
C848        C  0.58595051  0.86239043  0.03267187    -0.36300
C849        C  0.57865566  0.83517271  0.03519371     0.16000
C850        C  0.55933380  0.82342856  0.01986080     0.21800
C851        C  0.54594685  0.83856592  0.00027645    -0.34400
C852        C  0.55319680  0.86588535  0.99778039     0.15900
O853        O  0.57338255  0.90407367  0.01041284    -0.26400
C854        C  0.55503178  0.90949433  0.99221649     0.05700
C855        C  0.54210895  0.88637487  0.98343773    -0.31300
O856        O  0.55494148  0.79787473  0.02659450    -0.23200
C857        C  0.57173607  0.79327329  0.04654081    -0.03100
C858        C  0.58691799  0.81583645  0.05259460    -0.17600
H859        H  0.60043825  0.87144254  0.04562294     0.20400
H860        H  0.53035548  0.82991237  0.98843123     0.18800
H861        H  0.52491078  0.88521840  0.97076265     0.18700
H862        H  0.60176594  0.81780991  0.06792443     0.14600
C863        C  0.43602272  0.83281333  0.96045692     0.30000
C864        C  0.42982985  0.86041904  0.96103585    -0.36300
C865        C  0.44422028  0.87618697  0.97899834     0.16000
C866        C  0.46334118  0.86549321  0.99545260     0.21800
C867        C  0.46932461  0.83771485  0.99511873    -0.34400
C868        C  0.45508709  0.82193831  0.97687314     0.15900
O869        O  0.42582064  0.81488173  0.94416889    -0.26400
C870        C  0.43844504  0.79203505  0.94996965     0.05700
C871        C  0.45694592  0.79518752  0.97027017    -0.31300
O872        O  0.47627901  0.88435734  0.00854643    -0.23200
C873        C  0.46529275  0.90748550  0.00047450    -0.03100
C874        C  0.44508440  0.90350205  0.98218061    -0.17600
H875        H  0.41545037  0.86918714  0.94762673     0.20400
H876        H  0.48470276  0.82919233  0.00748923     0.18800
H877        H  0.47004642  0.78013522  0.97862871     0.18700
H878        H  0.43433404  0.91862802  0.97096278     0.14600
C879        C  0.55164118  0.01335137  0.13440082     0.30000
C880        C  0.54396157  0.01530608  0.16139590    -0.36300
C881        C  0.56160495  0.02851588  0.17832177     0.16000
C882        C  0.58519318  0.03917973  0.16923973     0.21800
C883        C  0.59317576  0.03665181  0.14226962    -0.34400
C884        C  0.57551396  0.02330499  0.12527318     0.15900
O885        O  0.53674900  0.00458703  0.11486093    -0.26400
C886        C  0.55123899  0.00837939  0.09279837     0.05700
C887        C  0.57573560  0.01987268  0.09799614    -0.31300
O888        O  0.59743050  0.05297833  0.18793611    -0.23200
C889        C  0.58161932  0.05092037  0.20933993    -0.03100
C890        C  0.55911289  0.03570927  0.20456165    -0.17600
H891        H  0.52493058  0.00814731  0.16843409     0.20400
H892        H  0.61132197  0.04555657  0.13481974     0.18800
H893        H  0.59041316  0.02682361  0.08368912     0.18700
H894        H  0.54264155  0.03185122  0.21798221     0.14600
C895        C  0.45461623  0.94460596  0.12234287     0.30000
C896        C  0.45018558  0.92158148  0.13803808    -0.36300
C897        C  0.45357346  0.92459983  0.16561624     0.16000
C898        C  0.46096084  0.94851623  0.17732375     0.21800
C899        C  0.46533036  0.97173916  0.16152626    -0.34400
C900        C  0.46158673  0.96879976  0.13376326     0.15900
O901        O  0.45548192  0.94534938  0.09597569    -0.26400
C902        C  0.46229771  0.97058660  0.09013654     0.05700
C903        C  0.46636044  0.98607665  0.11292334    -0.31300
O904        O  0.46241803  0.94650694  0.20378450    -0.23200
C905        C  0.45577600  0.92093429  0.20878543    -0.03100
C906        C  0.45025726  0.90652923  0.18572931    -0.17600
H907        H  0.44500619  0.90242374  0.12928448     0.20400
H908        H  0.47146638  0.99064105  0.17017697     0.18800
H909        H  0.47499543  0.00600109  0.11394160     0.18700
H910        H  0.44371982  0.88582947  0.18412781     0.14600
C911        C  0.46047174  0.12135363  0.00233778     0.30000
C912        C  0.46742574  0.14888880  0.00217805    -0.36300
C913        C  0.45325728  0.16552097  0.01993579     0.16000
C914        C  0.43359899  0.15558711  0.03652195     0.21800
C915        C  0.42664668  0.12820539  0.03663217    -0.34400
C916        C  0.44076569  0.11165494  0.01898936     0.15900
O917        O  0.47256581  0.10184073  0.98917903    -0.26400
C918        C  0.46037369  0.07936467  0.99741274     0.05700
C919        C  0.44034465  0.08435770  0.01592739    -0.31300
O920        O  0.42331538  0.17423807  0.05203215    -0.23200
C921        C  0.43644018  0.19662172  0.04553176    -0.03100
C922        C  0.45541176  0.19246080  0.02559303    -0.17600
H923        H  0.48326161  0.15663095  0.98965682     0.20400
H924        H  0.41167305  0.12023275  0.05007350     0.18800
H925        H  0.42866289  0.06982570  0.02711670     0.18700
H926        H  0.46888595  0.20700968  0.01678670     0.14600
C927        C  0.56687369  0.10996594  0.97946217     0.30000
C928        C  0.57936995  0.12431975  0.95867678    -0.36300
C929        C  0.57433727  0.15211604  0.95758653     0.16000
C930        C  0.55816415  0.16521123  0.97563285     0.21800
C931        C  0.54589462  0.15084778  0.99672586    -0.34400
C932        C  0.55095862  0.12291420  0.99785970     0.15900
O933        O  0.56624023  0.08345998  0.98212588    -0.26400
C934        C  0.54988004  0.07915825  0.00269672     0.05700
C935        C  0.54002476  0.10308210  0.01342885    -0.31300
O936        O  0.55565321  0.19130766  0.97005894    -0.23200
C937        C  0.57054361  0.19482479  0.94816766    -0.03100
C938        C  0.58253434  0.17105933  0.93967473    -0.17600
H939        H  0.59136675  0.11433154  0.94371701     0.20400
H940        H  0.53264473  0.16056911  0.01073246     0.18800
H941        H  0.52467503  0.10537762  0.02842896     0.18700
H942        H  0.59547950  0.16814191  0.92258923     0.14600
C943        C  0.00747614  0.12091850  0.54748666     0.30000
C944        C  0.00906774  0.14891830  0.54272589    -0.36300
C945        C  0.02667473  0.16331390  0.55894688     0.16000
C946        C  0.04151931  0.15092260  0.57853751     0.21800
C947        C  0.03973464  0.12309284  0.58345682    -0.34400
C948        C  0.02224868  0.10875259  0.56726425     0.15900
O949        O  0.99483239  0.10316808  0.53269945    -0.26400
C950        C  0.00149676  0.07932379  0.54320040     0.05700
C951        C  0.01835611  0.08169981  0.56493251    -0.31300
O952        O  0.05748893  0.16778176  0.59065047    -0.23200
C953        C  0.05297176  0.19145188  0.57880653    -0.03100
C954        C  0.03391655  0.18993123  0.55886795    -0.17600
H955        H  0.99818144  0.15860147  0.52675975     0.20400
H956        H  0.05188987  0.11313889  0.59827216     0.18800
H957        H  0.02844824  0.06573540  0.57564411     0.18700
H958        H  0.02669778  0.20596910  0.54606271     0.14600
C959        C  0.46040284  0.02500788  0.82466105     0.30000
C960        C  0.47132967  0.00219042  0.83746310    -0.36300
C961        C  0.46700141  0.00011926  0.86536429     0.16000
C962        C  0.45300916  0.01924879  0.87952599     0.21800
C963        C  0.44187553  0.04164960  0.86676530    -0.34400
C964        C  0.44616428  0.04366650  0.83914449     0.15900
O965        O  0.46202747  0.03150458  0.79885271    -0.26400
C966        C  0.44850311  0.05455780  0.79710092     0.05700
C967        C  0.43835545  0.06291105  0.82159819    -0.31300
O968        O  0.45356936  0.01514988  0.90559185    -0.23200
C969        C  0.46775460  0.99281086  0.90850244    -0.03100
C970        C  0.47651131  0.98239526  0.88409114    -0.17600
H971        H  0.48278085  0.98740084  0.82658171     0.20400
H972        H  0.43120606  0.05693709  0.87778110     0.18800
H973        H  0.42659367  0.08062029  0.82584680     0.18700
H974        H  0.49014034  0.96590685  0.88085054     0.14600
C975        C  0.15494163  0.42179605  0.96674599     0.30000
C976        C  0.12761148  0.41716289  0.96715999    -0.36300
C977        C  0.11260443  0.43382275  0.98395935     0.16000
C978        C  0.12371770  0.45367619  0.99942135     0.21800
C979        C  0.15118372  0.45819581  0.99915036    -0.34400
C980        C  0.16623641  0.44158252  0.98216002     0.15900
O981        O  0.17233500  0.40923778  0.95158937    -0.26400
C982        C  0.19522483  0.42106461  0.95712534     0.05700
C983        C  0.19267723  0.44137862  0.97611207    -0.31300
O984        O  0.10570452  0.46862516  0.01154280    -0.23200
C985        C  0.08274159  0.45818305  0.00382415    -0.03100
C986        C  0.08592695  0.43637018  0.98672995    -0.17600
H987        H  0.11857115  0.40218816  0.95453369     0.20400
H988        H  0.16005220  0.47422396  0.01057163     0.18800
H989        H  0.20795586  0.45418580  0.98408869     0.18700
H990        H  0.07081219  0.42555144  0.97601649     0.14600
C991        C  0.14331844  0.24604848  0.66732073     0.30000
C992        C  0.15763578  0.26102813  0.68588707    -0.36300
C993        C  0.17721686  0.24694869  0.69980144     0.16000
C994        C  0.18270394  0.22004919  0.69553022     0.21800
C995        C  0.16801067  0.20490551  0.67726188    -0.34400
C996        C  0.14810861  0.21893078  0.66356444     0.15900
O997        O  0.12479241  0.25547250  0.65146881    -0.26400
C998        C  0.11727918  0.23407016  0.63761342     0.05700
C999        C  0.13095661  0.21069235  0.64439057    -0.31300
O1000       O  0.20244551  0.21123538  0.71032640    -0.23200
C1001       C  0.20931645  0.23273541  0.72443494    -0.03100
C1002       C  0.19422141  0.25543044  0.71881551    -0.17600
H1003       H  0.15391946  0.28225998  0.68909042     0.20400
H1004       H  0.17194277  0.18376004  0.67382286     0.18800
H1005       H  0.12918843  0.19084201  0.63573911     0.18700
H1006       H  0.19574341  0.27534254  0.72739888     0.14600
C1007       C  0.32773403  0.17726284  0.76888117     0.30000
C1008       C  0.34782422  0.16423791  0.78312074    -0.36300
C1009       C  0.36539354  0.14873911  0.76787216     0.16000
C1010       C  0.36366928  0.14648453  0.74041300     0.21800
C1011       C  0.34344094  0.15942841  0.72615508    -0.34400
C1012       C  0.32554931  0.17459935  0.74149576     0.15900
O1013       O  0.30894025  0.19239290  0.77924626    -0.26400
C1014       C  0.29425260  0.19923279  0.75831750     0.05700
C1015       C  0.30359182  0.18870938  0.73428994    -0.31300
O1016       O  0.38201878  0.13049521  0.73033939    -0.23200
C1017       C  0.39543943  0.12226786  0.75170957    -0.03100
C1018       C  0.38593473  0.13295919  0.77555641    -0.17600
H1019       H  0.34940475  0.16574902  0.80465255     0.20400
H1020       H  0.34152001  0.15743763  0.70470072     0.18800
H1021       H  0.29546949  0.19124352  0.71445342     0.18700
H1022       H  0.39291231  0.12925585  0.79568229     0.14600
C1023       C  0.22817852  0.32950629  0.87004888     0.30000
C1024       C  0.21418827  0.31614097  0.84997876    -0.36300
C1025       C  0.22838468  0.29661828  0.83564880     0.16000
C1026       C  0.25439144  0.29034457  0.84096219     0.21800
C1027       C  0.26830294  0.30357941  0.86106925    -0.34400
C1028       C  0.25427313  0.32336239  0.87506210     0.15900
O1029       O  0.21949976  0.34981101  0.88463338    -0.26400
C1030       C  0.24044437  0.35679508  0.89890738     0.05700
C1031       C  0.26254540  0.34100624  0.89379616    -0.31300
O1032       O  0.26417292  0.27232728  0.82436750    -0.23200
C1033       C  0.24422972  0.26710351  0.80809173    -0.03100
C1034       C  0.22146123  0.28160324  0.81416015    -0.17600
H1035       H  0.19398435  0.32125647  0.84523554     0.20400
H1036       H  0.28890688  0.29942006  0.86489702     0.18800
H1037       H  0.28215193  0.34292691  0.90202981     0.18700
H1038       H  0.20276842  0.28155398  0.80381793     0.14600
C1039       C  0.84083159  0.56931360  0.95873507     0.30000
C1040       C  0.86763487  0.57666132  0.95807299    -0.36300
C1041       C  0.88382621  0.56461258  0.97747030     0.16000
C1042       C  0.87422952  0.54667480  0.99638479     0.21800
C1043       C  0.84726392  0.53967059  0.99732635    -0.34400
C1044       C  0.83109659  0.55145930  0.97765358     0.15900
O1045       O  0.82272775  0.57699059  0.94145345    -0.26400
C1046       C  0.80095377  0.56387252  0.94912641     0.05700
C1047       C  0.80496674  0.54765339  0.97167173    -0.31300
O1048       O  0.89329655  0.53531686  0.01043448    -0.23200
C1049       C  0.91547564  0.54615642  0.00057081    -0.03100
C1050       C  0.91066558  0.56472898  0.98010245    -0.17600
H1051       H  0.87554176  0.58996262  0.94271108     0.20400
H1052       H  0.83966803  0.52506038  0.01161790     0.18800
H1053       H  0.79087609  0.53471081  0.98186964     0.18700
H1054       H  0.92495703  0.57464318  0.96715561     0.14600
C1055       C  0.97699890  0.82666557  0.55751198     0.30000
C1056       C  0.99714725  0.84009647  0.54312803    -0.36300
C1057       C  0.99986237  0.86789020  0.54801212     0.16000
C1058       C  0.98375411  0.88155851  0.56569367     0.21800
C1059       C  0.96380659  0.86811943  0.58019757    -0.34400
C1060       C  0.96115327  0.84040350  0.57537308     0.15900
O1061       O  0.97029279  0.80094021  0.55545870    -0.26400
C1062       C  0.94986821  0.79821002  0.57227139     0.05700
C1063       C  0.94342738  0.82215832  0.58518281    -0.31300
O1064       O  0.98786784  0.90786324  0.56518567    -0.23200
C1065       C  0.00710575  0.91126770  0.54714565    -0.03100
C1066       C  0.01543731  0.88698369  0.53594116    -0.17600
H1067       H  0.00936050  0.82978026  0.52858789     0.20400
H1068       H  0.95066157  0.87872818  0.59366493     0.18800
H1069       H  0.92770428  0.82568741  0.59953099     0.18700
H1070       H  0.02916796  0.88411459  0.51949726     0.14600
C1071       C  0.73824286  0.64045901  0.85246126     0.30000
C1072       C  0.72230176  0.65890868  0.83854915    -0.36300
C1073       C  0.73498924  0.67432888  0.81860841     0.16000
C1074       C  0.76145663  0.67152722  0.81249164     0.21800
C1075       C  0.77746900  0.65333499  0.82664752    -0.34400
C1076       C  0.76486759  0.63819830  0.84685984     0.15900
O1077       O  0.73047223  0.62394353  0.87179594    -0.26400
C1078       C  0.75247569  0.61120953  0.87894671     0.05700
C1079       C  0.77452174  0.61935517  0.86420275    -0.31300
O1080       O  0.76917506  0.68782615  0.79295266    -0.23200
C1081       C  0.74744384  0.70148332  0.78668125    -0.03100
C1082       C  0.72558073  0.69398586  0.80204918    -0.17600
H1083       H  0.70148597  0.66114892  0.84302471     0.20400
H1084       H  0.79831894  0.65122631  0.82229236     0.18800
H1085       H  0.79462531  0.61217659  0.86583121     0.18700
H1086       H  0.70568991  0.70189490  0.80113150     0.14600
C1087       C  0.85148913  0.76023721  0.64712788     0.30000
C1088       C  0.83286157  0.77547616  0.66149911    -0.36300
C1089       C  0.81658970  0.76100740  0.67939598     0.16000
C1090       C  0.81883784  0.73352021  0.68325861     0.21800
C1091       C  0.83723582  0.71826573  0.66869105    -0.34400
C1092       C  0.85316617  0.73264707  0.65047803     0.15900
O1093       O  0.86870503  0.76955686  0.62935004    -0.26400
C1094       C  0.88132798  0.74758462  0.62097781     0.05700
C1095       C  0.87237927  0.72404987  0.63335893    -0.31300
O1096       O  0.80194215  0.72414337  0.70126341    -0.23200
C1097       C  0.78837248  0.74581550  0.70875630    -0.03100
C1098       C  0.79656782  0.76932446  0.69576385    -0.17600
H1099       H  0.83109020  0.79707994  0.65881807     0.20400
H1100       H  0.83892912  0.69664642  0.67129020     0.18800
H1101       H  0.87926739  0.70362217  0.63037473     0.18700
H1102       H  0.78903110  0.78958386  0.69824452     0.14600
C1103       C  0.54786142  0.99278195  0.86749587     0.30000
C1104       C  0.54178813  0.99251057  0.83999936    -0.36300
C1105       C  0.55234582  0.97094292  0.82514582     0.16000
C1106       C  0.56803308  0.95132950  0.83660840     0.21800
C1107       C  0.57414743  0.95167056  0.86387680    -0.34400
C1108       C  0.56353072  0.97298542  0.87863680     0.15900
O1109       O  0.53795876  0.00919743  0.88579121    -0.26400
C1110       C  0.54758545  0.99973994  0.90882532     0.05700
C1111       C  0.56370070  0.97735045  0.90540960    -0.31300
O1112       O  0.57580950  0.93296544  0.81938176    -0.23200
C1113       C  0.56494624  0.94060401  0.79640116    -0.03100
C1114       C  0.54998310  0.96411696  0.79874511    -0.17600
H1115       H  0.52918962  0.00762164  0.83098582     0.20400
H1116       H  0.58589968  0.93597281  0.87311103     0.18800
H1117       H  0.57218152  0.96453793  0.92074272     0.18700
H1118       H  0.53925525  0.97473763  0.78325903     0.14600
C1119       C  0.64240137  0.84255709  0.76140842     0.30000
C1120       C  0.65710538  0.82414008  0.77667239    -0.36300
C1121       C  0.67593845  0.80897265  0.76258771     0.16000
C1122       C  0.68039755  0.81202422  0.73543123     0.21800
C1123       C  0.66543446  0.83015931  0.72009469    -0.34400
C1124       C  0.64629205  0.84499204  0.73410911     0.15900
O1125       O  0.62383918  0.85889598  0.77045497    -0.26400
C1126       C  0.61549758  0.87166805  0.74857767     0.05700
C1127       C  0.62867677  0.86372865  0.72539786    -0.31300
O1128       O  0.69941321  0.79617401  0.72651467    -0.23200
C1129       C  0.70691896  0.78251169  0.74819189    -0.03100
C1130       C  0.69291949  0.78954772  0.77115629    -0.17600
H1131       H  0.65404298  0.82175549  0.79802909     0.20400
H1132       H  0.66846537  0.83251019  0.69872536     0.18800
H1133       H  0.62587858  0.87100097  0.70512585     0.18700
H1134       H  0.69518825  0.78169131  0.79128348     0.14600
C1135       C  0.46250069  0.33479902  0.06806282     0.30000
C1136       C  0.46261569  0.36213080  0.07522525    -0.36300
C1137       C  0.48154406  0.37846052  0.06239778     0.16000
C1138       C  0.49920139  0.36858764  0.04374920     0.21800
C1139       C  0.49926591  0.34110976  0.03676840    -0.34400
C1140       C  0.48022081  0.32474676  0.04956616     0.15900
O1141       O  0.44562437  0.31640583  0.07670214    -0.26400
C1142       C  0.45245894  0.29411335  0.06364780     0.05700
C1143       C  0.47394956  0.29808339  0.04645844    -0.31300
O1144       O  0.51311871  0.38796905  0.03205933    -0.23200
C1145       C  0.50440918  0.41058322  0.04344751    -0.03100
C1146       C  0.48485696  0.40576425  0.06263196    -0.17600
H1147       H  0.44827365  0.37030140  0.08912998     0.20400
H1148       H  0.51251414  0.33327776  0.02161507     0.18800
H1149       H  0.48326731  0.28360942  0.03332360     0.18700
H1150       H  0.47298929  0.42042596  0.07322563     0.14600
C1151       C  0.51879658  0.37643116  0.93294046     0.30000
C1152       C  0.53793829  0.36214438  0.91842612    -0.36300
C1153       C  0.53994196  0.33449109  0.92418052     0.16000
C1154       C  0.52417969  0.32141325  0.94279932     0.21800
C1155       C  0.50455629  0.33564896  0.95696009    -0.34400
C1156       C  0.50258086  0.36347129  0.95126077     0.15900
O1157       O  0.51626646  0.40294853  0.93349830    -0.26400
C1158       C  0.49793980  0.40723451  0.95223020     0.05700
C1159       C  0.48852347  0.38329539  0.96369340    -0.31300
O1160       O  0.53093727  0.29572961  0.94618703    -0.23200
C1161       C  0.55131684  0.29248428  0.92943709    -0.03100
C1162       C  0.55754959  0.31597622  0.91527482    -0.17600
H1163       H  0.55136259  0.37217483  0.90464578     0.20400
H1164       H  0.49252908  0.32601656  0.97226337     0.18800
H1165       H  0.47552397  0.38101851  0.98086438     0.18700
H1166       H  0.57336174  0.31917530  0.90089818     0.14600
C1167       C  0.66537269  0.45891947  0.05888710     0.30000
C1168       C  0.63817845  0.45680910  0.06376632    -0.36300
C1169       C  0.62223842  0.47602397  0.05110635     0.16000
C1170       C  0.63228979  0.49615343  0.03478661     0.21800
C1171       C  0.65967056  0.49824578  0.02982101    -0.34400
C1172       C  0.67571192  0.47878017  0.04241308     0.15900
O1173       O  0.68355230  0.44261565  0.06842875    -0.26400
C1174       C  0.70605183  0.45182577  0.05796387     0.05700
C1175       C  0.70244441  0.47435386  0.04147283    -0.31300
O1176       O  0.61343823  0.51072546  0.02354352    -0.23200
C1177       C  0.59109964  0.49972769  0.03283744    -0.03100
C1178       C  0.59548514  0.47805853  0.05003578    -0.17600
H1179       H  0.62994796  0.44084637  0.07615030     0.20400
H1180       H  0.66780368  0.51350622  0.01653129     0.18800
H1181       H  0.71725623  0.48574800  0.03051532     0.18700
H1182       H  0.58103138  0.46456403  0.05892855     0.14600
C1183       C  0.66543017  0.53394126  0.92912951     0.30000
C1184       C  0.63840564  0.53470551  0.92320330    -0.36300
C1185       C  0.62272975  0.51451514  0.93500457     0.16000
C1186       C  0.63288730  0.49467442  0.95143931     0.21800
C1187       C  0.66009514  0.49390090  0.95738899    -0.34400
C1188       C  0.67584322  0.51438426  0.94573714     0.15900
O1189       O  0.68329296  0.55136808  0.92062882    -0.26400
C1190       C  0.70567130  0.54326316  0.93196468     0.05700
C1191       C  0.70225605  0.52026437  0.94793304    -0.31300
O1192       O  0.61415840  0.47917704  0.96202540    -0.23200
C1193       C  0.59173944  0.48925811  0.95221176    -0.03100
C1194       C  0.59602218  0.51126534  0.93528560    -0.17600
H1195       H  0.63003874  0.55046669  0.91077612     0.20400
H1196       H  0.66825364  0.47891352  0.97083200     0.18800
H1197       H  0.71699655  0.50946498  0.95933292     0.18700
H1198       H  0.58140772  0.52431498  0.92621426     0.14600
C1199       C  0.52480207  0.66680498  0.04595445     0.30000
C1200       C  0.50557586  0.65307044  0.03095596    -0.36300
C1201       C  0.50397945  0.62487647  0.03503361     0.16000
C1202       C  0.52018914  0.61120650  0.05258728     0.21800
C1203       C  0.53902068  0.62490476  0.06771282    -0.34400
C1204       C  0.54059784  0.65285612  0.06364951     0.15900
O1205       O  0.53083644  0.69289844  0.04465248    -0.26400
C1206       C  0.55074207  0.69545249  0.06185739     0.05700
C1207       C  0.55740790  0.67112471  0.07414141    -0.31300
O1208       O  0.51750002  0.58475157  0.05130680    -0.23200
C1209       C  0.49906832  0.58108558  0.03285617    -0.03100
C1210       C  0.48982717  0.60544443  0.02216952    -0.17600
H1211       H  0.49334220  0.66344439  0.01649564     0.20400
H1212       H  0.55228711  0.61432776  0.08103767     0.18800
H1213       H  0.57286223  0.66731619  0.08853030     0.18700
H1214       H  0.47649861  0.60829628  0.00554846     0.14600
C1215       C  0.50022181  0.61932342  0.94423456     0.30000
C1216       C  0.50058887  0.64638661  0.95251511    -0.36300
C1217       C  0.48137225  0.66337468  0.94124350     0.16000
C1218       C  0.46323795  0.65424579  0.92296785     0.21800
C1219       C  0.46297255  0.62729581  0.91458227    -0.34400
C1220       C  0.48207590  0.61033961  0.92590075     0.15900
O1221       O  0.51428913  0.59945226  0.95449227    -0.26400
C1222       C  0.50516438  0.57742473  0.94255253     0.05700
C1223       C  0.48519285  0.58306875  0.92437422    -0.31300
O1224       O  0.44647348  0.67312446  0.91562308    -0.23200
C1225       C  0.45376382  0.69478571  0.92931401    -0.03100
C1226       C  0.47545354  0.68994363  0.94565834    -0.17600
H1227       H  0.51423628  0.65342814  0.96747787     0.20400
H1228       H  0.44828769  0.61986466  0.90085965     0.18800
H1229       H  0.47289933  0.56891098  0.91378837     0.18700
H1230       H  0.48523143  0.70381865  0.95892975     0.14600
C1231       C  0.36805759  0.52019942  0.03395860     0.30000
C1232       C  0.34186025  0.52229581  0.02502953    -0.36300
C1233       C  0.32480097  0.53809022  0.04066186     0.16000
C1234       C  0.33313185  0.55100924  0.06342905     0.21800
C1235       C  0.35931650  0.54873709  0.07247022    -0.34400
C1236       C  0.37636431  0.53276913  0.05693121     0.15900
O1237       O  0.38763824  0.50866606  0.02094785    -0.26400
C1238       C  0.40884653  0.51336333  0.03582061     0.05700
C1239       C  0.40306018  0.52830572  0.05860251    -0.31300
O1240       O  0.31429218  0.56566355  0.07439283    -0.23200
C1241       C  0.29346372  0.56202930  0.05865413    -0.03100
C1242       C  0.29883695  0.54498651  0.03726730    -0.17600
H1243       H  0.33546302  0.51292011  0.00669623     0.20400
H1244       H  0.36607776  0.55928708  0.09001155     0.18800
H1245       H  0.41674545  0.53676675  0.07278009     0.18700
H1246       H  0.28576648  0.53904353  0.02132764     0.14600
C1247       C  0.37857356  0.44759807  0.94030307     0.30000
C1248       C  0.36274047  0.42503499  0.93566228    -0.36300
C1249       C  0.33547137  0.42887192  0.93835383     0.16000
C1250       C  0.32413970  0.45313785  0.94532654     0.21800
C1251       C  0.34008093  0.47593189  0.94984284    -0.34400
C1252       C  0.36757520  0.47215994  0.94681908     0.15900
O1253       O  0.40457616  0.44757883  0.94165062    -0.26400
C1254       C  0.41070355  0.47270216  0.94828554     0.05700
C1255       C  0.38838067  0.48884303  0.95188065    -0.31300
O1256       O  0.29795945  0.45171484  0.94679423    -0.23200
C1257       C  0.29274621  0.42614937  0.94054948    -0.03100
C1258       C  0.31541276  0.41123010  0.93520231    -0.17600
H1259       H  0.37115518  0.40557120  0.93091535     0.20400
H1260       H  0.33172195  0.49510480  0.95569509     0.18800
H1261       H  0.38752587  0.50893032  0.96016460     0.18700
H1262       H  0.31686387  0.39030628  0.92934337     0.14600
C1263       C  0.08371030  0.45974107  0.34522763     0.30000
C1264       C  0.09022685  0.46000755  0.37250590    -0.36300
C1265       C  0.07619386  0.47828510  0.38850231     0.16000
C1266       C  0.05692970  0.49506903  0.37838547     0.21800
C1267       C  0.05031172  0.49471063  0.35105368    -0.34400
C1268       C  0.06445045  0.47646073  0.33498282     0.15900
O1269       O  0.09434340  0.44412392  0.32685227    -0.26400
C1270       C  0.08180587  0.45075232  0.30439816     0.05700
C1271       C  0.06290305  0.47080424  0.30823455    -0.31300
O1272       O  0.04512877  0.50927692  0.39727257    -0.23200
C1273       C  0.05707870  0.50166654  0.41980491    -0.03100
C1274       C  0.07660786  0.48239117  0.41547806    -0.17600
H1275       H  0.10501313  0.44661825  0.38075157     0.20400
H1276       H  0.03491360  0.50745381  0.34298744     0.18800
H1277       H  0.05001822  0.47988239  0.29352456     0.18700
H1278       H  0.08805594  0.47154730  0.43027217     0.14600
C1279       C  0.95163183  0.52572177  0.33570098     0.30000
C1280       C  0.96836203  0.50677487  0.34808644    -0.36300
C1281       C  0.96482496  0.50321012  0.37589886     0.16000
C1282       C  0.94630906  0.51747458  0.39044696     0.21800
C1283       C  0.92974218  0.53631271  0.37814820    -0.34400
C1284       C  0.93321475  0.53978617  0.35053768     0.15900
O1285       O  0.95086421  0.53207856  0.30988349    -0.26400
C1286       C  0.93169601  0.55046633  0.30843983     0.05700
C1287       C  0.92028722  0.55606319  0.33319009    -0.31300
O1288       O  0.94791182  0.51304272  0.41640421    -0.23200
C1289       C  0.96756371  0.49547063  0.41877428    -0.03100
C1290       C  0.97871012  0.48843030  0.39415094    -0.17600
H1291       H  0.98323533  0.49582058  0.33693202     0.20400
H1292       H  0.91544826  0.54790205  0.38944820     0.18800
H1293       H  0.90415872  0.56966854  0.33766900     0.18700
H1294       H  0.99618426  0.47640112  0.39049275     0.14600
C1295       C  0.04827077  0.50228017  0.62962993     0.30000
C1296       C  0.04001108  0.50523634  0.65635968    -0.36300
C1297       C  0.05515697  0.52263593  0.67204393     0.16000
C1298       C  0.07712032  0.53591486  0.66215143     0.21800
C1299       C  0.08550110  0.53278547  0.63548882    -0.34400
C1300       C  0.07017222  0.51565124  0.61970638     0.15900
O1301       O  0.03508733  0.48986179  0.61075488    -0.26400
C1302       C  0.04852809  0.49541078  0.58836445     0.05700
C1303       C  0.07073843  0.51121049  0.59277159    -0.31300
O1304       O  0.08783827  0.55191964  0.67997910    -0.23200
C1305       C  0.07258088  0.54892667  0.70162528    -0.03100
C1306       C  0.05186733  0.53095462  0.69784789    -0.17600
H1307       H  0.02234143  0.49556340  0.66404548     0.20400
H1308       H  0.10216960  0.54383297  0.62732597     0.18800
H1309       H  0.08373062  0.52038016  0.57800774     0.18700
H1310       H  0.03656232  0.52506719  0.71195218     0.14600
C1311       C  0.93656675  0.48599724  0.61581475     0.30000
C1312       C  0.92120919  0.46778818  0.63077781    -0.36300
C1313       C  0.92586670  0.46709006  0.65839942     0.16000
C1314       C  0.94429910  0.48316642  0.67073035     0.21800
C1315       C  0.95940408  0.50175991  0.65578727    -0.34400
C1316       C  0.95470439  0.50250546  0.62806521     0.15900
O1317       O  0.93779908  0.48746805  0.58942793    -0.26400
C1318       C  0.95675869  0.50542400  0.58460516     0.05700
C1319       C  0.96773081  0.51565881  0.60795817    -0.31300
O1320       O  0.94604835  0.47815445  0.69675301    -0.23200
C1321       C  0.92839481  0.45865028  0.70099769    -0.03100
C1322       C  0.91534104  0.45108692  0.67781035    -0.17600
H1323       H  0.90737367  0.45427080  0.62139749     0.20400
H1324       H  0.97436680  0.51412232  0.66495603     0.18800
H1325       H  0.98483714  0.52857160  0.60978910     0.18700
H1326       H  0.90036901  0.43572978  0.67553280     0.14600
C1327       C  0.05940052  0.36735998  0.52786751     0.30000
C1328       C  0.05557038  0.33967668  0.52359210    -0.36300
C1329       C  0.06312689  0.32238253  0.54451649     0.16000
C1330       C  0.07412195  0.33172846  0.56785124     0.21800
C1331       C  0.07786691  0.35943300  0.57218327    -0.34400
C1332       C  0.06999111  0.37676132  0.55137758     0.15900
O1333       O  0.05082060  0.38699740  0.51233458    -0.26400
C1334       C  0.05610950  0.40937542  0.52579562     0.05700
C1335       C  0.06789228  0.40422464  0.55038163    -0.31300
O1336       O  0.07954821  0.31208447  0.58484577    -0.23200
C1337       C  0.07165578  0.28983970  0.57244108    -0.03100
C1338       C  0.06115278  0.29501832  0.54726725    -0.17600
H1339       H  0.04635380  0.33223985  0.50562904     0.20400
H1340       H  0.08559212  0.36697686  0.59082356     0.18800
H1341       H  0.07170748  0.41835718  0.56630008     0.18700
H1342       H  0.05357024  0.28072605  0.53299301     0.14600
C1343       C  0.94773211  0.37429994  0.46255323     0.30000
C1344       C  0.93210653  0.35990237  0.44447215    -0.36300
C1345       C  0.93781743  0.33227558  0.44195480     0.16000
C1346       C  0.95752740  0.31951382  0.45616251     0.21800
C1347       C  0.97301323  0.33384431  0.47437852    -0.34400
C1348       C  0.96725761  0.36143465  0.47694415     0.15900
O1349       O  0.94763725  0.40076132  0.46614545    -0.26400
C1350       C  0.96711120  0.40476377  0.48342216     0.05700
C1351       C  0.97994388  0.38101000  0.49065918    -0.31300
O1352       O  0.96031784  0.29384167  0.44959863    -0.23200
C1353       C  0.94209343  0.29010903  0.43092122    -0.03100
C1354       C  0.92753058  0.31335109  0.42548861    -0.17600
H1355       H  0.91716863  0.36972205  0.43248554     0.20400
H1356       H  0.98901283  0.32436284  0.48517243     0.18800
H1357       H  0.99752972  0.37883301  0.50264859     0.18700
H1358       H  0.91200639  0.31607944  0.41094869     0.14600
C1359       C  0.95099305  0.67346168  0.52646845     0.30000
C1360       C  0.96529735  0.66096876  0.50564791    -0.36300
C1361       C  0.96227067  0.63280885  0.50344892     0.16000
C1362       C  0.94658117  0.61800210  0.52082238     0.21800
C1363       C  0.93206125  0.63047941  0.54127548    -0.34400
C1364       C  0.93488958  0.65850220  0.54328938     0.15900
O1365       O  0.95141822  0.69935931  0.53291303    -0.26400
C1366       C  0.93523116  0.70088474  0.55406216     0.05700
C1367       C  0.92443439  0.67603235  0.56125019    -0.31300
O1368       O  0.94897844  0.59177359  0.51736228    -0.23200
C1369       C  0.96600396  0.58949240  0.49709136    -0.03100
C1370       C  0.97480362  0.61443164  0.48747606    -0.17600
H1371       H  0.97843225  0.67226580  0.49256988     0.20400
H1372       H  0.92006911  0.61897924  0.55528780     0.18800
H1373       H  0.91100938  0.67147429  0.57763702     0.18700
H1374       H  0.99026533  0.61831081  0.47287201     0.14600
C1375       C  0.06709033  0.61969780  0.48473799     0.30000
C1376       C  0.08174220  0.63262832  0.46462856    -0.36300
C1377       C  0.07853183  0.66053425  0.46262866     0.16000
C1378       C  0.06188864  0.67507604  0.47906104     0.21800
C1379       C  0.04720432  0.66206497  0.49948800    -0.34400
C1380       C  0.05069408  0.63391680  0.50173716     0.15900
O1381       O  0.06557591  0.59344964  0.48836738    -0.26400
C1382       C  0.04841144  0.59050125  0.50837481     0.05700
C1383       C  0.03853293  0.61502223  0.51765493    -0.31300
O1384       O  0.06174916  0.70113005  0.47284226    -0.23200
C1385       C  0.07866888  0.70297656  0.45228214    -0.03100
C1386       C  0.08956403  0.67831645  0.44521632    -0.17600
H1387       H  0.09435487  0.62156277  0.45101085     0.20400
H1388       H  0.03372314  0.67297456  0.51236882     0.18800
H1389       H  0.02281993  0.61824504  0.53209234     0.18700
H1390       H  0.10361379  0.67406550  0.42936339     0.14600
C1391       C  0.49606486  0.06975623  0.61716727     0.30000
C1392       C  0.47845742  0.08597975  0.63161700    -0.36300
C1393       C  0.47527164  0.07949108  0.65881573     0.16000
C1394       C  0.48852040  0.05855417  0.67115253     0.21800
C1395       C  0.50644298  0.04252185  0.65676162    -0.34400
C1396       C  0.50969267  0.04907101  0.62951803     0.15900
O1397       O  0.49930129  0.06998467  0.59092763    -0.26400
C1398       C  0.51550630  0.04940779  0.58638067     0.05700
C1399       C  0.52286616  0.03590766  0.60973394    -0.31300
O1400       O  0.48143440  0.05532400  0.69651991    -0.23200
C1401       C  0.46338933  0.07446449  0.70038275    -0.03100
C1402       C  0.45884988  0.09006230  0.67759235    -0.17600
H1403       H  0.46709931  0.10176986  0.62205171     0.20400
H1404       H  0.51638966  0.02550884  0.66589024     0.18800
H1405       H  0.53377055  0.01720950  0.61152830     0.18700
H1406       H  0.44508786  0.10657443  0.67511004     0.14600
C1407       C  0.52384952  0.93974543  0.67151936     0.30000
C1408       C  0.50638942  0.95663256  0.65752383    -0.36300
C1409       C  0.50494961  0.95258257  0.62973781     0.16000
C1410       C  0.51980132  0.93342806  0.61652654     0.21800
C1411       C  0.53679640  0.91619202  0.63058910    -0.34400
C1412       C  0.53817919  0.92019001  0.65831485     0.15900
O1413       O  0.52988047  0.94125808  0.69720731    -0.26400
C1414       C  0.54827723  0.92234181  0.70039968     0.05700
C1415       C  0.55404036  0.90857728  0.67688237    -0.31300
O1416       O  0.51824953  0.93567749  0.59020305    -0.23200
C1417       C  0.50183841  0.95628494  0.58642019    -0.03100
C1418       C  0.49276335  0.96733857  0.61038378    -0.17600
H1419       H  0.49562371  0.97263290  0.66737413     0.20400
H1420       H  0.54914950  0.90162782  0.62044151     0.18800
H1421       H  0.56856118  0.89288403  0.67371964     0.18700
H1422       H  0.48126771  0.98552936  0.61309990     0.14600
C1423       C  0.33531830  0.05457567  0.45901552     0.30000
C1424       C  0.35020126  0.04689434  0.48144361    -0.36300
C1425       C  0.37754646  0.05166446  0.47971018     0.16000
C1426       C  0.38954922  0.06267177  0.45727741     0.21800
C1427       C  0.37467457  0.07062105  0.43502893    -0.34400
C1428       C  0.34737825  0.06619872  0.43691594     0.15900
O1429       O  0.30947580  0.05189773  0.45607015    -0.26400
C1430       C  0.30504471  0.06209560  0.43176809     0.05700
C1431       C  0.32795550  0.07122921  0.41905055    -0.31300
O1432       O  0.41557628  0.06179666  0.45844359    -0.23200
C1433       C  0.42045605  0.05091225  0.48232878    -0.03100
C1434       C  0.39745936  0.04423213  0.49634914    -0.17600
H1435       H  0.34120508  0.03733778  0.49878748     0.20400
H1436       H  0.38383822  0.07887940  0.41712050     0.18800
H1437       H  0.32995836  0.08052984  0.39945595     0.18700
H1438       H  0.39575724  0.03239489  0.51458112     0.14600
C1439       C  0.37496779  0.95919865  0.52271101     0.30000
C1440       C  0.34829825  0.96690259  0.52309108    -0.36300
C1441       C  0.33095337  0.94948343  0.53668509     0.16000
C1442       C  0.33937541  0.92611533  0.54910568     0.21800
C1443       C  0.36601586  0.91811536  0.54823498    -0.34400
C1444       C  0.38340559  0.93552048  0.53453638     0.15900
O1445       O  0.39468543  0.97392324  0.51360272    -0.26400
C1446       C  0.41610303  0.95942939  0.51910333     0.05700
C1447       C  0.41037625  0.93519532  0.53208183    -0.31300
O1448       O  0.32026041  0.91404074  0.56261422    -0.23200
C1449       C  0.29926491  0.92971615  0.55866133    -0.03100
C1450       C  0.30468501  0.95200404  0.54248395    -0.17600
H1451       H  0.34173576  0.98577638  0.51438785     0.20400
H1452       H  0.37285872  0.90015142  0.55847479     0.18800
H1453       H  0.42407194  0.92067768  0.54037180     0.18700
H1454       H  0.29155384  0.96830094  0.53694416     0.14600
C1455       C  0.51501973  0.04853057  0.37758385     0.30000
C1456       C  0.51593349  0.04191216  0.35026935    -0.36300
C1457       C  0.53550385  0.05489418  0.33484258     0.16000
C1458       C  0.55283900  0.07324627  0.34557822     0.21800
C1459       C  0.55187828  0.07991105  0.37284249    -0.34400
C1460       C  0.53237868  0.06688846  0.38826661     0.15900
O1461       O  0.50045239  0.03649714  0.39611593    -0.26400
C1462       C  0.50846473  0.04727181  0.41901866     0.05700
C1463       C  0.52818163  0.06651414  0.41526971    -0.31300
O1464       O  0.57001089  0.08243971  0.32777660    -0.23200
C1465       C  0.56372949  0.06981202  0.30527030    -0.03100
C1466       C  0.54240526  0.05233865  0.30847710    -0.17600
H1467       H  0.50297104  0.02690676  0.34187097     0.20400
H1468       H  0.56592023  0.09364890  0.38158993     0.18800
H1469       H  0.53972659  0.07651353  0.43039764     0.18700
H1470       H  0.53339679  0.03960734  0.29361530     0.14600
C1471       C  0.49921591  0.92843875  0.39016917     0.30000
C1472       C  0.48426262  0.90909973  0.37676073    -0.36300
C1473       C  0.48141299  0.91305565  0.34912803     0.16000
C1474       C  0.49251163  0.93450427  0.33535617     0.21800
C1475       C  0.50784176  0.95373677  0.34875326    -0.34400
C1476       C  0.51076629  0.94972935  0.37650763     0.15900
O1477       O  0.50188539  0.93019404  0.41635804    -0.26400
C1478       C  0.51574992  0.95266176  0.41963496     0.05700
C1479       C  0.52197564  0.96555647  0.39548723    -0.31300
O1480       O  0.48588215  0.93491333  0.30974114    -0.23200
C1481       C  0.47029449  0.91343913  0.30725590    -0.03100
C1482       C  0.46699049  0.89914756  0.33112659    -0.17600
H1483       H  0.47457342  0.89268932  0.38733317     0.20400
H1484       H  0.51613137  0.97110241  0.33846583     0.18800
H1485       H  0.53119511  0.98506193  0.39255548     0.18700
H1486       H  0.45509178  0.88136198  0.33483363     0.14600
C1487       C  0.63701208  0.05227094  0.50497224     0.30000
C1488       C  0.66462638  0.04918537  0.50464023    -0.36300
C1489       C  0.67846728  0.06222102  0.52514172     0.16000
C1490       C  0.66602265  0.07746151  0.54448306     0.21800
C1491       C  0.63849669  0.08063507  0.54475819    -0.34400
C1492       C  0.62467647  0.06745660  0.52443107     0.15900
O1493       O  0.62000217  0.03951209  0.48958542    -0.26400
C1494       C  0.59646911  0.04662845  0.49933311     0.05700
C1495       C  0.59827995  0.06405989  0.52095559    -0.31300
O1496       O  0.68260269  0.08712462  0.56227085    -0.23200
C1497       C  0.70606510  0.07792209  0.55435754    -0.03100
C1498       C  0.70467467  0.06226660  0.53135305    -0.17600
H1499       H  0.67452851  0.03662400  0.49006379     0.20400
H1500       H  0.62845315  0.09182764  0.56032097     0.18800
H1501       H  0.58246743  0.07123062  0.53375506     0.18700
H1502       H  0.72061564  0.05221268  0.52089260     0.14600
C1503       C  0.66500057  0.92860031  0.45702224     0.30000
C1504       C  0.63760855  0.92477321  0.45757173    -0.36300
C1505       C  0.62394324  0.93671040  0.47888348     0.16000
C1506       C  0.63626851  0.95145654  0.49847474     0.21800
C1507       C  0.66384544  0.95517728  0.49799444    -0.34400
C1508       C  0.67758295  0.94329788  0.47648072     0.15900
O1509       O  0.68138376  0.91938004  0.43865846    -0.26400
C1510       C  0.70492706  0.92827706  0.44620314     0.05700
C1511       C  0.70379931  0.94340428  0.46961178    -0.31300
O1512       O  0.61918450  0.96324778  0.51481352    -0.23200
C1513       C  0.59567770  0.95586229  0.50552541    -0.03100
C1514       C  0.59757809  0.93921543  0.48331331    -0.17600
H1515       H  0.62753844  0.91385041  0.44200345     0.20400
H1516       H  0.67376105  0.96725616  0.51279533     0.18800
H1517       H  0.71994107  0.95261826  0.48025012     0.18700
H1518       H  0.58177983  0.93222171  0.47065166     0.14600
loop_ 
_geom_bond_atom_site_label_1 
_geom_bond_atom_site_label_2 
_geom_bond_distance 
_geom_bond_site_symmetry_2 
_ccdc_geom_bond_type 
O1            C9   1.288       .  A
O1          Co21   2.079   1_565  S
O2           C10   1.268       .  A
O2          Co22   1.999   1_565  S
O3           C11   1.274       .  A
O3          Co23   1.976       .  S
O4           C12   1.263       .  A
O4          Co24   1.980       .  S
O5           C11   1.280       .  A
O5          Co22   2.026   1_565  S
O6           C12   1.264       .  A
O6          Co21   2.006   1_565  S
O7           C10   1.270       .  A
O7          Co24   1.994       .  S
O8            C9   1.268       .  A
O8          Co23   1.927       .  S
C9         C1513   1.473       .  S
C10        C1446   1.468       .  S
C11        C1417   1.475       .  S
C12        C1478   1.472       .  S
O13          C26   1.270       .  A
O13         Co21   1.968       .  S
O14          C27   1.263       .  A
O14         Co22   1.981       .  S
O15          C28   1.288       .  A
O15         Co23   2.084   1_545  S
O16          C29   1.268       .  A
O16         Co24   1.995   1_545  S
O17          C29   1.271       .  A
O17         Co22   1.989       .  S
O18          C28   1.268       .  A
O18         Co21   1.926       .  S
O19          C26   1.280       .  A
O19         Co24   2.033   1_545  S
O20          C27   1.262       .  A
O20         Co23   1.992   1_545  S
Co21         O25   2.023       .  S
Co22         O25   2.037       .  S
Co23         O25   2.026   1_565  S
Co24         O25   2.036   1_565  S
C26        C1462   1.472       .  S
C27        C1398   1.468       .  S
C28        C1494   1.475       .  S
C29        C1433   1.465       .  S
O30          C38   1.291       .  A
O30         Co50   2.086       .  S
O31          C39   1.269       .  A
O31         Co51   2.000   1_455  S
O32          C40   1.271       .  A
O32         Co52   1.975       .  S
O33          C41   1.259       .  A
O33         Co53   1.970       .  S
O34          C40   1.278       .  A
O34         Co51   2.025   1_455  S
O35          C41   1.262       .  A
O35         Co50   2.011       .  S
O36          C39   1.269       .  A
O36         Co53   1.986       .  S
O37          C38   1.267       .  A
O37         Co52   1.916       .  S
C38        C1382   1.468       .  S
C39        C1334   1.463       .  S
C40        C1302   1.470       .  S
C41        C1273   1.477       .  S
O42          C55   1.270       .  A
O42         Co50   1.965   1_655  S
O43          C56   1.265       .  A
O43         Co51   1.983       .  S
O44          C57   1.290       .  A
O44         Co52   2.090   1_655  S
O45          C58   1.267   1_455  A
O45         Co53   1.995       .  S
O46          C58   1.271       .  A
O46         Co51   1.999       .  S
O47          C57   1.268       .  A
O47         Co50   1.924   1_655  S
O48          C55   1.281   1_455  A
O48         Co53   2.037       .  S
O49          C56   1.262       .  A
O49         Co52   1.993   1_655  S
Co50         O54   2.032       .  S
Co51         O54   2.044   1_655  S
Co52         O54   2.022       .  S
Co53         O54   2.039       .  S
C55        C1289   1.470       .  S
C56        C1318   1.472       .  S
C57        C1369   1.476       .  S
C58        C1350   1.472       .  S
O59          C67   1.267       .  A
O59         Co79   1.995   1_556  S
O60          C68   1.291       .  A
O60         Co80   2.089       .  S
O61          C69   1.261       .  A
O61         Co81   1.974       .  S
O62          C70   1.272       .  A
O62         Co82   1.977       .  S
O63          C69   1.261       .  A
O63         Co80   2.000       .  S
O64          C70   1.280       .  A
O64         Co79   2.036   1_556  S
O65          C68   1.269       .  A
O65         Co82   1.928       .  S
O66          C67   1.272       .  A
O66         Co81   1.991       .  S
C67        C1254   1.469       .  S
C68        C1193   1.481       .  S
C69        C1222   1.473       .  S
C70        C1158   1.480       .  S
O71          C84   1.263       .  A
O71         Co79   1.977       .  S
O72          C85   1.272       .  A
O72         Co80   1.977   1_554  S
O73          C86   1.265       .  A
O73         Co81   1.989   1_554  S
O74          C87   1.292       .  A
O74         Co82   2.090   1_554  S
O75          C87   1.267       .  A
O75         Co80   1.918   1_554  S
O76          C86   1.273       .  A
O76         Co79   2.002       .  S
O77          C84   1.264       .  A
O77         Co82   2.011   1_554  S
O78          C85   1.280   1_556  A
O78         Co81   2.040       .  S
Co79         O83   2.051   1_554  S
Co80         O83   2.038       .  S
Co81         O83   2.054       .  S
Co82         O83   2.044       .  S
C84        C1145   1.480       .  S
C85        C1209   1.483       .  S
C86        C1238   1.471       .  S
C87        C1177   1.475       .  S
C88        C1414   1.476       .  S
C88          N89   1.356       .  A
C88          N93   1.364       .  A
N89          C90   1.353       .  A
C90        C1126   1.471       .  S
C90          N91   1.356       .  A
N91          C92   1.362       .  A
C92        C1113   1.477       .  S
C92          N93   1.366       .  A
C94        C1081   1.472       .  S
C94          N95   1.358       .  A
C94          N99   1.359       .  A
N95          C96   1.358       .  A
C96        C1129   1.470       .  S
C96          N97   1.359       .  A
N97          C98   1.360       .  A
C98        C1097   1.472       .  S
C98          N99   1.360       .  A
C100       C1062   1.483       .  S
C100        N101   1.361       .  A
C100        N105   1.367       .  A
N101        C102   1.356       .  A
C102       C1094   1.474       .  S
C102        N103   1.356       .  A
N103        C104   1.359       .  A
C104       C1366   1.483       .  S
C104        N105   1.366       .  A
C106       C1046   1.484       .  S
C106        N107   1.371       .  A
C106        N111   1.359       .  A
N107        C108   1.370       .  A
C108       C1190   1.484       .  S
C108        N109   1.359       .  A
N109        C110   1.354       .  A
C110       C1078   1.472       .  S
C110        N111   1.355       .  A
C112       C1014   1.470       .  S
C112        N113   1.359       .  A
C112        N117   1.361       .  A
N113        C114   1.357       .  A
C114       C1033   1.467       .  S
C114        N115   1.354       .  A
N115        C116   1.355       .  A
C116       C1001   1.465       .  S
C116        N117   1.359       .  A
C118       C1257   1.481       .  S
C118        N119   1.354       .  A
C118        N123   1.367       .  A
N119        C120   1.349       .  A
C120       C1030   1.466       .  S
C120        N121   1.353       .  A
N121        C122   1.362       .  A
C122        C982   1.479       .  S
C122        N123   1.372       .  A
C124        C966   1.478       .  S
C124        N125   1.364       .  A
C124        N129   1.356       .  A
N125        C126   1.368       .  A
C126       C1401   1.475       .  S
C126        N127   1.362       .  A
N127        C128   1.354       .  A
C128       C1017   1.470       .  S
C128        N129   1.351       .  A
C130        C953   1.479       .  S
C130        N131   1.367       .  A
C130        N135   1.360       .  A
N131        C132   1.366       .  A
C132       C1337   1.475       .  S
C132        N133   1.355       .  A
N133        C134   1.353       .  A
C134        C998   1.467       .  S
C134        N135   1.356       .  A
O136        C144   1.291   1_545  A
O136       Co156   2.087       .  S
O137        C145   1.268       .  A
O137       Co157   1.992       .  S
O138        C146   1.273   1_556  A
O138       Co158   1.977       .  S
O139        C147   1.262   1_554  A
O139       Co159   1.979       .  S
O140        C146   1.280       .  A
O140       Co157   2.040       .  S
O141        C147   1.262       .  A
O141       Co156   2.008       .  S
O142        C145   1.270       .  A
O142       Co159   1.983   1_565  S
O143        C144   1.267       .  A
O143       Co158   1.920       .  S
C144        C969   1.473       .  S
C145        C902   1.461       .  S
C146        C873   1.482       .  S
C147        C918   1.478       .  S
O148        C161   1.270   1_556  A
O148       Co156   1.972       .  S
O149        C162   1.263   1_554  A
O149       Co157   1.979       .  S
O150        C163   1.289   1_565  A
O150       Co158   2.080       .  S
O151        C164   1.266       .  A
O151       Co159   1.996       .  S
O152        C164   1.271   1_565  A
O152       Co157   2.002       .  S
O153        C163   1.268       .  A
O153       Co156   1.926       .  S
O154        C161   1.280       .  A
O154       Co159   2.033       .  S
O155        C162   1.263       .  A
O155       Co158   2.001       .  S
Co156       O160   2.041   1_546  S
Co157       O160   2.051       .  S
Co158       O160   2.030   1_556  S
Co159       O160   2.051   1_545  S
C161        C934   1.477       .  S
C162        C854   1.477       .  S
C163       C1110   1.471   1_545  S
C164        C886   1.474       .  S
C165        C838   1.474       .  S
C165        N166   1.361       .  A
C165        N170   1.361       .  A
N166        C167   1.360       .  A
C167        C822   1.470       .  S
C167        N168   1.355       .  A
N168        C169   1.356       .  A
C169        C809   1.467       .  S
C169        N170   1.359       .  A
C171       C1225   1.478       .  S
C171        N172   1.357       .  A
C171        N176   1.368       .  A
N172        C173   1.352       .  A
C173        C841   1.471       .  S
C173        N174   1.356       .  A
N174        C175   1.361       .  A
C175        C870   1.483       .  S
C175        N176   1.369       .  A
C177        C793   1.475       .  S
C177        N178   1.362       .  A
C177        N182   1.364       .  A
N178        C179   1.357       .  A
C179        C825   1.470       .  S
C179        N180   1.354       .  A
N180        C181   1.355       .  A
C181       C1449   1.473       .  S
C181        N182   1.363       .  A
C183        C777   1.472       .  S
C183        N184   1.363       .  A
C183        N188   1.356       .  A
N184        C185   1.365       .  A
C185       C1305   1.474       .  S
C185        N186   1.360       .  A
N186        C187   1.356       .  A
C187        C806   1.466       .  S
C187        N188   1.353       .  A
C189        C726   1.465       .  S
C189        N190   1.358       .  A
C189        N194   1.357       .  A
N190        C191   1.358       .  A
C191        C742   1.471       .  S
C191        N192   1.361       .  A
N192        C193   1.359       .  A
C193        C758   1.471       .  S
C193        N194   1.358       .  A
C195       C1353   1.480       .  S
C195        N196   1.356       .  A
C195        N200   1.366       .  A
N196        C197   1.353       .  A
C197        C761   1.471       .  S
C197        N198   1.357       .  A
N198        C199   1.363       .  A
C199        C713   1.483       .  S
C199        N200   1.367       .  A
C201        C694   1.478       .  S
C201        N202   1.357       .  A
C201        N206   1.367       .  A
N202        C203   1.353       .  A
C203        C745   1.470       .  S
C203        N204   1.354       .  A
N204        C205   1.360       .  A
C205       C1174   1.478       .  S
C205        N206   1.368       .  A
C207       C1465   1.476       .  S
C207        N208   1.359       .  A
C207        N212   1.365       .  A
N208        C209   1.356       .  A
C209        C729   1.468       .  S
C209        N210   1.356       .  A
N210        C211   1.357       .  A
C211        C889   1.478       .  S
C211        N212   1.365       .  A
O213        C221   1.272   1_556  A
O213       Co233   1.976       .  S
O214        C222   1.261   1_554  A
O214       Co234   1.979       .  S
O215        C223   1.269       .  A
O215       Co235   1.998       .  S
O216        C224   1.291   1_455  A
O216       Co236   2.084       .  S
O217        C223   1.269   1_455  A
O217       Co234   1.983       .  S
O218        C224   1.268       .  A
O218       Co233   1.917       .  S
O219        C222   1.263       .  A
O219       Co236   2.011       .  S
O220        C221   1.279       .  A
O220       Co235   2.037       .  S
C221       C1049   1.482       .  S
C222        C678   1.478       .  S
C223        C649   1.464       .  S
C224        C774   1.470       .  S
O225        C238   1.288   1_655  A
O225       Co233   2.081       .  S
O226        C239   1.267       .  A
O226       Co234   1.995       .  S
O227        C240   1.262   1_554  A
O227       Co235   1.979       .  S
O228        C241   1.270   1_556  A
O228       Co236   1.971       .  S
O229        C241   1.280       .  A
O229       Co234   2.042       .  S
O230        C240   1.262       .  A
O230       Co233   2.005       .  S
O231        C238   1.267       .  A
O231       Co236   1.925       .  S
O232        C239   1.269   1_655  A
O232       Co235   1.991       .  S
Co233       O237   2.034   1_656  S
Co234       O237   2.048       .  S
Co235       O237   2.047   1_655  S
Co236       O237   2.031   1_556  S
C238        C630   1.470       .  S
C239        C662   1.468       .  S
C240        C697   1.475       .  S
C241        C985   1.478       .  S
C242        C598   1.476       .  S
C242        N243   1.360       .  A
C242        N247   1.369       .  A
N243        C244   1.352       .  A
C244        C614   1.463       .  S
C244        N245   1.350       .  A
N245        C246   1.354       .  A
C246       C1430   1.477       .  S
C246        N247   1.367       .  A
C248        C585   1.461       .  S
C248        N249   1.355       .  A
C248        N253   1.357       .  A
N249        C250   1.356       .  A
C250        C617   1.463       .  S
C250        N251   1.358       .  A
N251        C252   1.358       .  A
C252        C566   1.468       .  S
C252        N253   1.358       .  A
C254       C1270   1.479       .  S
C254        N255   1.371       .  A
C254        N259   1.361       .  A
N255        C256   1.367       .  A
C256        C665   1.479       .  S
C256        N257   1.353       .  A
N257        C258   1.349       .  A
C258        C582   1.463       .  S
C258        N259   1.353       .  A
C260       C1142   1.481       .  S
C260        N261   1.360       .  A
C260        N265   1.368       .  A
N261        C262   1.355       .  A
C262        C569   1.471       .  S
C262        N263   1.354       .  A
N263        C264   1.357       .  A
C264        C921   1.479       .  S
C264        N265   1.367       .  A
C266        C553   1.466       .  S
C266        N267   1.359       .  A
C266        N271   1.357       .  A
N267        C268   1.358       .  A
C268        C521   1.467       .  S
C268        N269   1.356       .  A
N269        C270   1.357       .  A
C270        C534   1.465       .  S
C270        N271   1.357       .  A
C272       C1321   1.477       .  S
C272        N273   1.368       .  A
C272        N277   1.358       .  A
N273        C274   1.367       .  A
C274        C633   1.480       .  S
C274        N275   1.359       .  A
N275        C276   1.352       .  A
C276        C550   1.466       .  S
C276        N277   1.350       .  A
C278        C937   1.483       .  S
C278        N279   1.358       .  A
C278        N283   1.371       .  A
N279        C280   1.350       .  A
C280        C537   1.465       .  S
C280        N281   1.349       .  A
N281        C282   1.358       .  A
C282       C1161   1.485       .  S
C282        N283   1.372       .  A
C284       C1497   1.478       .  S
C284        N285   1.363       .  A
C284        N289   1.362       .  A
N285        C286   1.362       .  A
C286        C505   1.470       .  S
C286        N287   1.354       .  A
N287        C288   1.354       .  A
C288        C518   1.469       .  S
C288        N289   1.360       .  A
C290        C489   1.468       .  S
C290        N291   1.358       .  A
C290        N295   1.359       .  A
N291        C292   1.356       .  A
C292        C473   1.467       .  S
C292        N293   1.358       .  A
N293        C294   1.357       .  A
C294        C454   1.470       .  S
C294        N295   1.359       .  A
C296       C1510   1.476       .  S
C296        N297   1.361       .  A
C296        N301   1.366       .  A
N297        C298   1.356       .  A
C298        C486   1.469       .  S
C298        N299   1.353       .  A
N299        C300   1.355       .  A
C300        C438   1.472       .  S
C300        N301   1.364       .  A
C302        C646   1.476       .  S
C302        N303   1.367       .  A
C302        N307   1.356       .  A
N303        C304   1.368       .  A
C304       C1286   1.477       .  S
C304        N305   1.360       .  A
N305        C306   1.351       .  A
C306        C470   1.463       .  S
C306        N307   1.349       .  A
C308        C857   1.485       .  S
C308        N309   1.371       .  A
C308        N313   1.359       .  A
N309        C310   1.371       .  A
C310       C1206   1.487       .  S
C310        N311   1.360       .  A
N311        C312   1.351       .  A
C312        C457   1.469       .  S
C312        N313   1.352       .  A
C314        C409   1.466       .  S
C314        N315   1.358       .  A
C314        N319   1.360       .  A
N315        C316   1.355       .  A
C316        C422   1.466       .  S
C316        N317   1.357       .  A
N317        C318   1.357       .  A
C318        C390   1.469       .  S
C318        N319   1.360       .  A
C320       C1481   1.478       .  S
C320        N321   1.369       .  A
C320        N325   1.363       .  A
N321        C322   1.366       .  A
C322        C905   1.475       .  S
C322        N323   1.353       .  A
N323        C324   1.347       .  A
C324        C425   1.465       .  S
C324        N325   1.353       .  A
C326        C377   1.475       .  S
C326        N327   1.366       .  A
C326        N331   1.361       .  A
N327        C328   1.363       .  A
C328       C1385   1.476       .  S
C328        N329   1.357       .  A
N329        C330   1.352       .  A
C330        C406   1.467       .  S
C330        N331   1.355       .  A
C332       C1241   1.480       .  S
C332        N333   1.354       .  A
C332        N337   1.368       .  A
N333        C334   1.353       .  A
C334        C393   1.470       .  S
C334        N335   1.356       .  A
N335        C336   1.361       .  A
C336        C681   1.482       .  S
C336        N337   1.370       .  A
O338        C346   1.259   1_655  A
O338       Co358   1.973       .  S
O339        C347   1.269   1_455  A
O339       Co359   1.968       .  S
O340        C348   1.290   1_565  A
O340       Co360   2.080       .  S
O341        C349   1.265       .  A
O341       Co361   1.989       .  S
O342        C348   1.266       .  A
O342       Co359   1.917       .  S
O343        C349   1.267   1_565  A
O343       Co358   1.990       .  S
O344        C347   1.281       .  A
O344       Co361   2.044       .  S
O345        C346   1.264       .  A
O345       Co360   2.018       .  S
C346       C1065   1.480       .  S
C347        C950   1.477   1_655  S
C348        C790   1.467       .  S
C349        C502   1.460       .  S
O350        C363   1.268       .  A
O350       Co358   1.994       .  S
O351        C364   1.291   1_545  A
O351       Co359   2.084       .  S
O352        C365   1.269       .  A
O352       Co360   1.969       .  S
O353        C366   1.261       .  A
O353       Co361   1.982   1_455  S
O354        C366   1.263       .  A
O354       Co359   2.009       .  S
O355        C365   1.281   1_655  A
O355       Co358   2.035       .  S
O356        C363   1.271       .  A
O356       Co361   1.987   1_565  S
O357        C364   1.268       .  A
O357       Co360   1.919       .  S
Co358       O362   2.036       .  S
Co359       O362   2.020   1_445  S
Co360       O362   2.031   1_455  S
Co361       O362   2.047   1_545  S
C363        C441   1.464       .  S
C364        C601   1.471       .  S
C365        C374   1.473       .  S
C366        C710   1.478       .  S
C367        C372   1.380       .  A
C367        C368   1.404       .  A
C367        O373   1.321       .  A
C368        C369   1.404       .  A
C368        H379   1.083       .  S
C369        C378   1.361       .  A
C369        C370   1.380       .  A
C370        C371   1.404       .  A
C370        O376   1.321       .  A
C371        C372   1.404       .  A
C371        H380   1.082       .  S
C372        C375   1.361   1_455  A
O373        C374   1.332       .  A
C374        C375   1.394   1_455  A
C375        H381   1.083       .  S
O376        C377   1.331       .  A
C377        C378   1.393       .  A
C378        H382   1.083       .  S
C383        C388   1.381       .  A
C383        C384   1.399       .  A
C383        O389   1.315       .  A
C384        C385   1.398       .  A
C384        H395   1.082       .  S
C385        C394   1.356       .  A
C385        C386   1.380       .  A
C386        C387   1.407       .  A
C386        O392   1.322       .  A
C387        C388   1.407       .  A
C387        H396   1.082       .  S
C388        C391   1.366       .  A
O389        C390   1.328       .  A
C390        C391   1.393       .  A
C391        H397   1.082       .  S
O392        C393   1.333       .  A
C393        C394   1.389       .  A
C394        H398   1.083       .  S
C399        C404   1.381       .  A
C399        C400   1.402       .  A
C399        O405   1.319       .  A
C400        C401   1.402       .  A
C400        H411   1.082       .  S
C401        C410   1.359       .  A
C401        C402   1.381       .  A
C402        C403   1.402       .  A
C402        O408   1.319       .  A
C403        C404   1.402       .  A
C403        H412   1.083       .  S
C404        C407   1.359       .  A
O405        C406   1.330       .  A
C406        C407   1.391       .  A
C407        H413   1.083       .  S
O408        C409   1.330       .  A
C409        C410   1.390       .  A
C410        H414   1.083       .  S
C415        C420   1.380       .  A
C415        C416   1.405       .  A
C415        O421   1.319       .  A
C416        C417   1.404       .  A
C416        H427   1.082       .  S
C417        C426   1.365       .  A
C417        C418   1.381       .  A
C418        C419   1.400       .  A
C418        O424   1.313       .  A
C419        C420   1.398       .  A
C419        H428   1.082       .  S
C420        C423   1.358       .  A
O421        C422   1.331       .  A
C422        C423   1.389       .  A
C423        H429   1.083       .  S
O424        C425   1.329       .  A
C425        C426   1.392       .  A
C426        H430   1.082       .  S
C431        C436   1.380       .  A
C431        C432   1.407       .  A
C431        O437   1.324       .  A
C432        C433   1.408       .  A
C432        H443   1.082       .  S
C433        C442   1.365       .  A
C433        C434   1.380       .  A
C434        C435   1.402       .  A
C434        O440   1.318       .  A
C435        C436   1.401       .  A
C435        H444   1.082       .  S
C436        C439   1.357       .  A
O437        C438   1.332       .  A
C438        C439   1.390       .  A
C439        H445   1.083       .  S
O440        C441   1.331       .  A
C441        C442   1.393       .  A
C442        H446   1.083   1_565  S
C447        C452   1.381       .  A
C447        C448   1.401       .  A
C447        O453   1.318       .  A
C448        C449   1.400       .  A
C448        H459   1.083       .  S
C449        C458   1.359       .  A
C449        C450   1.380       .  A
C450        C451   1.405       .  A
C450        O456   1.320       .  A
C451        C452   1.405       .  A
C451        H460   1.083       .  S
C452        C455   1.363       .  A
O453        C454   1.329       .  A
C454        C455   1.393       .  A
C455        H461   1.083       .  S
O456        C457   1.332       .  A
C457        C458   1.389       .  A
C458        H462   1.083       .  S
C463        C468   1.381       .  A
C463        C464   1.399       .  A
C463        O469   1.315       .  A
C464        C465   1.398       .  A
C464        H475   1.082       .  S
C465        C474   1.358       .  A
C465        C466   1.381       .  A
C466        C467   1.404       .  A
C466        O472   1.319       .  A
C467        C468   1.403       .  A
C467        H476   1.082       .  S
C468        C471   1.363       .  A
O469        C470   1.328       .  A
C470        C471   1.391       .  A
C471        H477   1.083       .  S
O472        C473   1.331       .  A
C473        C474   1.389       .  A
C474        H478   1.082       .  S
C479        C484   1.380       .  A
C479        C480   1.405       .  A
C479        O485   1.321       .  A
C480        C481   1.405       .  A
C480        H491   1.082       .  S
C481        C490   1.364       .  A
C481        C482   1.381       .  A
C482        C483   1.400       .  A
C482        O488   1.317       .  A
C483        C484   1.400       .  A
C483        H492   1.082       .  S
C484        C487   1.358       .  A
O485        C486   1.332       .  A
C486        C487   1.390       .  A
C487        H493   1.083       .  S
O488        C489   1.329       .  A
C489        C490   1.392       .  A
C490        H494   1.082       .  S
C495        C500   1.380       .  A
C495        C496   1.402       .  A
C495        O501   1.312       .  A
C496        C497   1.399       .  A
C496        H507   1.083       .  S
C497        C506   1.363       .  A
C497        C498   1.380       .  A
C498        C499   1.406       .  A
C498        O504   1.318       .  A
C499        C500   1.404       .  A
C499        H508   1.082       .  S
C500        C503   1.369       .  A
O501        C502   1.329       .  A
C502        C503   1.390       .  A
C503        H509   1.082       .  S
O504        C505   1.332       .  A
C505        C506   1.390       .  A
C506        H510   1.083       .  S
C511        C516   1.380       .  A
C511        C512   1.404       .  A
C511        O517   1.317       .  A
C512        C513   1.402       .  A
C512        H523   1.082       .  S
C513        C522   1.363       .  A
C513        C514   1.381       .  A
C514        C515   1.403       .  A
C514        O520   1.318       .  A
C515        C516   1.402       .  A
C515        H524   1.082       .  S
C516        C519   1.363       .  A
O517        C518   1.331       .  A
C518        C519   1.390       .  A
C519        H525   1.082       .  S
O520        C521   1.330       .  A
C521        C522   1.391       .  A
C522        H526   1.083       .  S
C527        C532   1.381       .  A
C527        C528   1.401       .  A
C527        O533   1.316       .  A
C528        C529   1.400       .  A
C528        H539   1.083       .  S
C529        C538   1.359       .  A
C529        C530   1.381       .  A
C530        C531   1.403       .  A
C530        O536   1.318       .  A
C531        C532   1.402       .  A
C531        H540   1.083       .  S
C532        C535   1.361       .  A
O533        C534   1.329       .  A
C534        C535   1.391       .  A
C535        H541   1.083       .  S
O536        C537   1.330       .  A
C537        C538   1.389       .  A
C538        H542   1.083       .  S
C543        C548   1.381       .  A
C543        C544   1.402       .  A
C543        O549   1.317       .  A
C544        C545   1.401       .  A
C544        H555   1.082       .  S
C545        C554   1.360       .  A
C545        C546   1.381       .  A
C546        C547   1.403       .  A
C546        O552   1.318       .  A
C547        C548   1.402       .  A
C547        H556   1.082       .  S
C548        C551   1.361       .  A
O549        C550   1.330       .  A
C550        C551   1.391       .  A
C551        H557   1.083       .  S
O552        C553   1.331       .  A
C553        C554   1.389       .  A
C554        H558   1.082       .  S
C559        C564   1.381       .  A
C559        C560   1.403       .  A
C559        O565   1.319       .  A
C560        C561   1.403       .  A
C560        H571   1.083       .  S
C561        C570   1.361       .  A
C561        C562   1.381       .  A
C562        C563   1.403       .  A
C562        O568   1.319       .  A
C563        C564   1.402       .  A
C563        H572   1.083       .  S
C564        C567   1.360       .  A
O565        C566   1.330       .  A
C566        C567   1.390       .  A
C567        H573   1.083       .  S
O568        C569   1.331       .  A
C569        C570   1.392       .  A
C570        H574   1.083       .  S
C575        C580   1.381       .  A
C575        C576   1.403       .  A
C575        O581   1.320       .  A
C576        C577   1.403       .  A
C576        H587   1.083       .  S
C577        C586   1.360       .  A
C577        C578   1.381       .  A
C578        C579   1.398       .  A
C578        O584   1.315       .  A
C579        C580   1.398       .  A
C579        H588   1.083       .  S
C580        C583   1.354       .  A
O581        C582   1.330       .  A
C582        C583   1.389       .  A
C583        H589   1.083       .  S
O584        C585   1.327       .  A
C585        C586   1.391       .  A
C586        H590   1.083       .  S
C591        C596   1.380       .  A
C591        C592   1.400       .  A
C591        O597   1.314       .  A
C592        C593   1.399       .  A
C592        H603   1.083       .  S
C593        C602   1.359       .  A
C593        C594   1.380   1_545  A
C594        C595   1.411       .  A
C594        O600   1.323       .  A
C595        C596   1.409   1_565  A
C595        H604   1.083       .  S
C596        C599   1.372       .  A
O597        C598   1.330       .  A
C598        C599   1.396       .  A
C599        H605   1.082       .  S
O600        C601   1.334       .  A
C601        C602   1.389   1_565  A
C602        H606   1.083       .  S
C607        C612   1.381       .  A
C607        C608   1.403       .  A
C607        O613   1.320       .  A
C608        C609   1.403       .  A
C608        H619   1.082       .  S
C609        C618   1.360       .  A
C609        C610   1.381       .  A
C610        C611   1.398       .  A
C610        O616   1.316       .  A
C611        C612   1.398       .  A
C611        H620   1.082       .  S
C612        C615   1.355       .  A
O613        C614   1.331       .  A
C614        C615   1.388       .  A
C615        H621   1.083       .  S
O616        C617   1.328       .  A
C617        C618   1.391       .  A
C618        H622   1.083       .  S
C623        C628   1.381       .  A
C623        C624   1.398       .  A
C623        O629   1.316       .  A
C624        C625   1.398       .  A
C624        H635   1.083       .  S
C625        C634   1.353       .  A
C625        C626   1.379       .  A
C626        C627   1.411       .  A
C626        O632   1.328       .  A
C627        C628   1.411       .  A
C627        H636   1.083   1_655  S
C628        C631   1.369   1_655  A
O629        C630   1.329   1_655  A
C630        C631   1.396       .  A
C631        H637   1.083       .  S
O632        C633   1.335       .  A
C633        C634   1.391       .  A
C634        H638   1.083       .  S
C639        C644   1.380       .  A
C639        C640   1.407       .  A
C639        O645   1.326       .  A
C640        C641   1.409       .  A
C640        H651   1.082       .  S
C641        C650   1.363       .  A
C641        C642   1.380       .  A
C642        C643   1.400       .  A
C642        O648   1.320       .  A
C643        C644   1.401       .  A
C643        H652   1.083       .  S
C644        C647   1.354       .  A
O645        C646   1.333       .  A
C646        C647   1.392       .  A
C647        H653   1.083       .  S
O648        C649   1.329       .  A
C649        C650   1.394       .  A
C650        H654   1.083   1_655  S
C655        C660   1.381       .  A
C655        C656   1.402       .  A
C655        O661   1.323       .  A
C656        C657   1.404       .  A
C656        H667   1.082       .  S
C657        C666   1.355       .  A
C657        C658   1.380       .  A
C658        C659   1.405       .  A
C658        O664   1.327       .  A
C659        C660   1.408       .  A
C659        H668   1.082       .  S
C660        C663   1.360       .  A
O661        C662   1.330       .  A
C662        C663   1.393       .  A
C663        H669   1.083   1_455  S
O664        C665   1.332       .  A
C665        C666   1.394       .  A
C666        H670   1.083       .  S
C671        C676   1.380   1_556  A
C671        C672   1.409       .  A
C671        O677   1.321       .  A
C672        C673   1.407   1_556  A
C672        H683   1.083       .  S
C673        C682   1.370       .  A
C673        C674   1.379       .  A
C674        C675   1.406       .  A
C674        O680   1.319       .  A
C675        C676   1.404       .  A
C675        H684   1.083       .  S
C676        C679   1.365       .  A
O677        C678   1.334       .  A
C678        C679   1.393   1_556  A
C679        H685   1.083       .  S
O680        C681   1.333       .  A
C681        C682   1.394       .  A
C682        H686   1.082       .  S
C687        C692   1.379       .  A
C687        C688   1.403       .  A
C687        O693   1.316       .  A
C688        C689   1.401       .  A
C688        H699   1.082       .  S
C689        C698   1.364       .  A
C689        C690   1.379   1_554  A
C690        C691   1.409       .  A
C690        O696   1.320       .  A
C691        C692   1.407   1_556  A
C691        H700   1.082       .  S
C692        C695   1.371       .  A
O693        C694   1.331       .  A
C694        C695   1.395       .  A
C695        H701   1.082       .  S
O696        C697   1.334       .  A
C697        C698   1.391   1_556  A
C698        H702   1.083       .  S
C703        C708   1.380   1_655  A
C703        C704   1.404       .  A
C703        O709   1.323   1_655  A
C704        C705   1.405       .  A
C704        H715   1.082       .  S
C705        C714   1.361       .  A
C705        C706   1.380       .  A
C706        C707   1.408   1_655  A
C706        O712   1.325       .  A
C707        C708   1.408       .  A
C707        H716   1.082       .  S
C708        C711   1.364       .  A
O709        C710   1.332       .  A
C710        C711   1.395       .  A
C711        H717   1.083       .  S
O712        C713   1.334       .  A
C713        C714   1.393       .  A
C714        H718   1.082       .  S
C719        C724   1.381       .  A
C719        C720   1.405       .  A
C719        O725   1.319       .  A
C720        C721   1.404       .  A
C720        H731   1.083       .  S
C721        C730   1.364       .  A
C721        C722   1.381       .  A
C722        C723   1.401       .  A
C722        O728   1.316       .  A
C723        C724   1.400       .  A
C723        H732   1.082       .  S
C724        C727   1.359       .  A
O725        C726   1.331       .  A
C726        C727   1.388       .  A
C727        H733   1.082       .  S
O728        C729   1.329       .  A
C729        C730   1.392       .  A
C730        H734   1.083       .  S
C735        C740   1.380       .  A
C735        C736   1.406       .  A
C735        O741   1.321       .  A
C736        C737   1.405       .  A
C736        H747   1.082       .  S
C737        C746   1.365       .  A
C737        C738   1.381       .  A
C738        C739   1.401       .  A
C738        O744   1.317       .  A
C739        C740   1.400       .  A
C739        H748   1.082       .  S
C740        C743   1.360       .  A
O741        C742   1.333       .  A
C742        C743   1.390       .  A
C743        H749   1.082       .  S
O744        C745   1.329       .  A
C745        C746   1.393       .  A
C746        H750   1.082       .  S
C751        C756   1.381       .  A
C751        C752   1.402       .  A
C751        O757   1.320       .  A
C752        C753   1.402       .  A
C752        H763   1.083       .  S
C753        C762   1.359       .  A
C753        C754   1.381       .  A
C754        C755   1.404       .  A
C754        O760   1.322       .  A
C755        C756   1.405       .  A
C755        H764   1.083       .  S
C756        C759   1.362       .  A
O757        C758   1.330       .  A
C758        C759   1.392       .  A
C759        H765   1.083       .  S
O760        C761   1.331       .  A
C761        C762   1.390       .  A
C762        H766   1.083       .  S
C767        C772   1.380       .  A
C767        C768   1.408       .  A
C767        O773   1.322   1_455  A
C768        C769   1.407       .  A
C768        H779   1.082   1_455  S
C769        C778   1.369       .  A
C769        C770   1.380       .  A
C770        C771   1.400       .  A
C770        O776   1.315       .  A
C771        C772   1.399       .  A
C771        H780   1.083       .  S
C772        C775   1.359       .  A
O773        C774   1.333       .  A
C774        C775   1.390   1_655  A
C775        H781   1.083       .  S
O776        C777   1.330       .  A
C777        C778   1.394       .  A
C778        H782   1.082       .  S
C783        C788   1.380       .  A
C783        C784   1.407       .  A
C783        O789   1.321   1_565  A
C784        C785   1.406       .  A
C784        H795   1.089   1_565  S
C785        C794   1.367       .  A
C785        C786   1.381       .  A
C786        C787   1.400       .  A
C786        O792   1.317       .  A
C787        C788   1.399       .  A
C787        H796   1.086       .  S
C788        C791   1.359       .  A
O789        C790   1.333       .  A
C790        C791   1.389   1_545  A
C791        H797   1.083       .  S
O792        C793   1.330       .  A
C793        C794   1.394       .  A
C794        H798   1.085       .  S
C799        C804   1.381       .  A
C799        C800   1.401       .  A
C799        O805   1.318       .  A
C800        C801   1.401       .  A
C800        H811   1.083       .  S
C801        C810   1.358       .  A
C801        C802   1.381       .  A
C802        C803   1.403       .  A
C802        O808   1.320       .  A
C803        C804   1.403       .  A
C803        H812   1.083       .  S
C804        C807   1.360       .  A
O805        C806   1.329       .  A
C806        C807   1.391       .  A
C807        H813   1.083       .  S
O808        C809   1.331       .  A
C809        C810   1.390       .  A
C810        H814   1.083       .  S
C815        C820   1.381       .  A
C815        C816   1.401       .  A
C815        O821   1.320       .  A
C816        C817   1.402       .  A
C816        H827   1.082       .  S
C817        C826   1.358       .  A
C817        C818   1.381       .  A
C818        C819   1.404       .  A
C818        O824   1.322       .  A
C819        C820   1.405       .  A
C819        H828   1.082       .  S
C820        C823   1.361       .  A
O821        C822   1.330       .  A
C822        C823   1.393       .  A
C823        H829   1.083       .  S
O824        C825   1.331       .  A
C825        C826   1.390       .  A
C826        H830   1.082       .  S
C831        C836   1.380       .  A
C831        C832   1.404       .  A
C831        O837   1.319       .  A
C832        C833   1.403       .  A
C832        H843   1.083       .  S
C833        C842   1.363       .  A
C833        C834   1.380       .  A
C834        C835   1.405       .  A
C834        O840   1.319       .  A
C835        C836   1.404       .  A
C835        H844   1.083       .  S
C836        C839   1.363       .  A
O837        C838   1.331       .  A
C838        C839   1.393       .  A
C839        H845   1.083       .  S
O840        C841   1.332       .  A
C841        C842   1.390       .  A
C842        H846   1.083       .  S
C847        C852   1.380   1_554  A
C847        C848   1.403       .  A
C847        O853   1.322       .  A
C848        C849   1.404       .  A
C848        H859   1.082       .  S
C849        C858   1.358       .  A
C849        C850   1.380       .  A
C850        C851   1.407       .  A
C850        O856   1.327       .  A
C851        C852   1.409   1_554  A
C851        H860   1.082   1_554  S
C852        C855   1.363       .  A
O853        C854   1.331   1_554  A
C854        C855   1.396       .  A
C855        H861   1.083       .  S
O856        C857   1.334       .  A
C857        C858   1.395       .  A
C858        H862   1.083       .  S
C863        C868   1.379       .  A
C863        C864   1.405       .  A
C863        O869   1.319       .  A
C864        C865   1.404       .  A
C864        H875   1.082       .  S
C865        C874   1.366       .  A
C865        C866   1.379       .  A
C866        C867   1.411       .  A
C866        O872   1.323   1_556  A
C867        C868   1.409       .  A
C867        H876   1.082   1_556  S
C868        C871   1.373       .  A
O869        C870   1.332       .  A
C870        C871   1.396       .  A
C871        H877   1.082       .  S
O872        C873   1.336       .  A
C873        C874   1.393   1_554  A
C874        H878   1.082       .  S
C879        C884   1.380       .  A
C879        C880   1.405       .  A
C879        O885   1.315       .  A
C880        C881   1.401       .  A
C880        H891   1.083       .  S
C881        C890   1.366       .  A
C881        C882   1.379       .  A
C882        C883   1.410       .  A
C882        O888   1.321       .  A
C883        C884   1.407       .  A
C883        H892   1.082       .  S
C884        C887   1.374       .  A
O885        C886   1.332       .  A
C886        C887   1.393       .  A
C887        H893   1.082       .  S
O888        C889   1.334       .  A
C889        C890   1.391       .  A
C890        H894   1.083       .  S
C895        C900   1.380       .  A
C895        C896   1.398       .  A
C895        O901   1.318       .  A
C896        C897   1.399       .  A
C896        H907   1.082       .  S
C897        C906   1.351       .  A
C897        C898   1.380       .  A
C898        C899   1.408       .  A
C898        O904   1.327       .  A
C899        C900   1.410       .  A
C899        H908   1.082       .  S
C900        C903   1.364       .  A
O901        C902   1.328       .  A
C902        C903   1.395       .  A
C903        H909   1.083   1_565  S
O904        C905   1.334       .  A
C905        C906   1.390       .  A
C906        H910   1.083       .  S
C911        C916   1.379       .  A
C911        C912   1.411       .  A
C911        O917   1.322   1_554  A
C912        C913   1.409       .  A
C912        H923   1.082   1_554  S
C913        C922   1.373       .  A
C913        C914   1.379       .  A
C914        C915   1.403       .  A
C914        O920   1.316       .  A
C915        C916   1.401       .  A
C915        H924   1.082       .  S
C916        C919   1.364       .  A
O917        C918   1.335       .  A
C918        C919   1.391   1_556  A
C919        H925   1.082       .  S
O920        C921   1.331       .  A
C921        C922   1.395       .  A
C922        H926   1.082       .  S
C927        C932   1.380       .  A
C927        C928   1.402       .  A
C927        O933   1.321       .  A
C928        C929   1.403       .  A
C928        H939   1.083       .  S
C929        C938   1.356       .  A
C929        C930   1.380       .  A
C930        C931   1.408       .  A
C930        O936   1.328       .  A
C931        C932   1.410       .  A
C931        H940   1.082   1_556  S
C932        C935   1.364   1_556  A
O933        C934   1.331   1_556  A
C934        C935   1.397       .  A
C935        H941   1.082       .  S
O936        C937   1.334       .  A
C937        C938   1.394       .  A
C938        H942   1.083       .  S
C943        C948   1.379       .  A
C943        C944   1.410       .  A
C943        O949   1.323   1_455  A
C944        C945   1.408       .  A
C944        H955   1.083   1_455  S
C945        C954   1.371       .  A
C945        C946   1.380       .  A
C946        C947   1.403       .  A
C946        O952   1.318       .  A
C947        C948   1.402       .  A
C947        H956   1.083       .  S
C948        C951   1.363       .  A
O949        C950   1.335   1_655  A
C950        C951   1.392       .  A
C951        H957   1.083       .  S
O952        C953   1.331       .  A
C953        C954   1.395       .  A
C954        H958   1.082       .  S
C959        C964   1.379       .  A
C959        C960   1.411       .  A
C959        O965   1.328       .  A
C960        C961   1.412       .  A
C960        H971   1.082   1_545  S
C961        C970   1.369   1_545  A
C961        C962   1.380       .  A
C962        C963   1.398       .  A
C962        O968   1.317       .  A
C963        C964   1.398       .  A
C963        H972   1.082       .  S
C964        C967   1.352       .  A
O965        C966   1.336       .  A
C966        C967   1.390       .  A
C967        H973   1.083       .  S
O968        C969   1.328   1_545  A
C969        C970   1.397       .  A
C970        H974   1.083       .  S
C975        C980   1.379       .  A
C975        C976   1.404       .  A
C975        O981   1.317       .  A
C976        C977   1.402       .  A
C976        H987   1.082       .  S
C977        C986   1.364       .  A
C977        C978   1.379       .  A
C978        C979   1.410       .  A
C978        O984   1.322   1_556  A
C979        C980   1.408       .  A
C979        H988   1.082   1_556  S
C980        C983   1.371       .  A
O981        C982   1.332       .  A
C982        C983   1.394       .  A
C983        H989   1.082       .  S
O984        C985   1.335       .  A
C985        C986   1.392   1_554  A
C986        H990   1.083       .  S
C991        C996   1.381       .  A
C991        C992   1.400       .  A
C991        O997   1.316       .  A
C992        C993   1.399       .  A
C992       H1003   1.083       .  S
C993       C1002   1.357       .  A
C993        C994   1.381       .  A
C994        C995   1.405       .  A
C994       O1000   1.321       .  A
C995        C996   1.404       .  A
C995       H1004   1.082       .  S
C996        C999   1.363       .  A
O997        C998   1.329       .  A
C998        C999   1.392       .  A
C999       H1005   1.082       .  S
O1000      C1001   1.331       .  A
C1001      C1002   1.389       .  A
C1002      H1006   1.083       .  S
C1007      C1012   1.381       .  A
C1007      C1008   1.401       .  A
C1007      O1013   1.318       .  A
C1008      C1009   1.401       .  A
C1008      H1019   1.082       .  S
C1009      C1018   1.358       .  A
C1009      C1010   1.381       .  A
C1010      C1011   1.405       .  A
C1010      O1016   1.321       .  A
C1011      C1012   1.405       .  A
C1011      H1020   1.082       .  S
C1012      C1015   1.364       .  A
O1013      C1014   1.330       .  A
C1014      C1015   1.392       .  A
C1015      H1021   1.082       .  S
O1016      C1017   1.332       .  A
C1017      C1018   1.390       .  A
C1018      H1022   1.083       .  S
C1023      C1028   1.381       .  A
C1023      C1024   1.403       .  A
C1023      O1029   1.321       .  A
C1024      C1025   1.404       .  A
C1024      H1035   1.082       .  S
C1025      C1034   1.360       .  A
C1025      C1026   1.381       .  A
C1026      C1027   1.399       .  A
C1026      O1032   1.318       .  A
C1027      C1028   1.400       .  A
C1027      H1036   1.082       .  S
C1028      C1031   1.355       .  A
O1029      C1030   1.331       .  A
C1030      C1031   1.390       .  A
C1031      H1037   1.083       .  S
O1032      C1033   1.329       .  A
C1033      C1034   1.392       .  A
C1034      H1038   1.082       .  S
C1039      C1044   1.379       .  A
C1039      C1040   1.406       .  A
C1039      O1045   1.319       .  A
C1040      C1041   1.404       .  A
C1040      H1051   1.083       .  S
C1041      C1050   1.367       .  A
C1041      C1042   1.379       .  A
C1042      C1043   1.410       .  A
C1042      O1048   1.322   1_556  A
C1043      C1044   1.408       .  A
C1043      H1052   1.082   1_556  S
C1044      C1047   1.373       .  A
O1045      C1046   1.333       .  A
C1046      C1047   1.395       .  A
C1047      H1053   1.082       .  S
O1048      C1049   1.335       .  A
C1049      C1050   1.394   1_554  A
C1050      H1054   1.083       .  S
C1055      C1060   1.380       .  A
C1055      C1056   1.409       .  A
C1055      O1061   1.326       .  A
C1056      C1057   1.409       .  A
C1056      H1067   1.082   1_655  S
C1057      C1066   1.367   1_655  A
C1057      C1058   1.380       .  A
C1058      C1059   1.405       .  A
C1058      O1064   1.322       .  A
C1059      C1060   1.404       .  A
C1059      H1068   1.082       .  S
C1060      C1063   1.361       .  A
O1061      C1062   1.334       .  A
C1062      C1063   1.394       .  A
C1063      H1069   1.083       .  S
O1064      C1065   1.332   1_655  A
C1065      C1066   1.396       .  A
C1066      H1070   1.083       .  S
C1071      C1076   1.380       .  A
C1071      C1072   1.404       .  A
C1071      O1077   1.320       .  A
C1072      C1073   1.403       .  A
C1072      H1083   1.082       .  S
C1073      C1082   1.362       .  A
C1073      C1074   1.380       .  A
C1074      C1075   1.404       .  A
C1074      O1080   1.320       .  A
C1075      C1076   1.403       .  A
C1075      H1084   1.082       .  S
C1076      C1079   1.363       .  A
O1077      C1078   1.331       .  A
C1078      C1079   1.392       .  A
C1079      H1085   1.082       .  S
O1080      C1081   1.331       .  A
C1081      C1082   1.392       .  A
C1082      H1086   1.083       .  S
C1087      C1092   1.380       .  A
C1087      C1088   1.405       .  A
C1087      O1093   1.321       .  A
C1088      C1089   1.405       .  A
C1088      H1099   1.083       .  S
C1089      C1098   1.364       .  A
C1089      C1090   1.380       .  A
C1090      C1091   1.403       .  A
C1090      O1096   1.319       .  A
C1091      C1092   1.403       .  A
C1091      H1100   1.083       .  S
C1092      C1095   1.361       .  A
O1093      C1094   1.332       .  A
C1094      C1095   1.391       .  A
C1095      H1101   1.083       .  S
O1096      C1097   1.331       .  A
C1097      C1098   1.392       .  A
C1098      H1102   1.083       .  S
C1103      C1108   1.379       .  A
C1103      C1104   1.410       .  A
C1103      O1109   1.324   1_565  A
C1104      C1105   1.410       .  A
C1104      H1115   1.082   1_565  S
C1105      C1114   1.370       .  A
C1105      C1106   1.380       .  A
C1106      C1107   1.400       .  A
C1106      O1112   1.316       .  A
C1107      C1108   1.399       .  A
C1107      H1116   1.083       .  S
C1108      C1111   1.357       .  A
O1109      C1110   1.335   1_545  A
C1110      C1111   1.389       .  A
C1111      H1117   1.083       .  S
O1112      C1113   1.329       .  A
C1113      C1114   1.396       .  A
C1114      H1118   1.082       .  S
C1119      C1124   1.381       .  A
C1119      C1120   1.403       .  A
C1119      O1125   1.321       .  A
C1120      C1121   1.403       .  A
C1120      H1131   1.082       .  S
C1121      C1130   1.360       .  A
C1121      C1122   1.381       .  A
C1122      C1123   1.403       .  A
C1122      O1128   1.320       .  A
C1123      C1124   1.403       .  A
C1123      H1132   1.083       .  S
C1124      C1127   1.360       .  A
O1125      C1126   1.331       .  A
C1126      C1127   1.392       .  A
C1127      H1133   1.083       .  S
O1128      C1129   1.331       .  A
C1129      C1130   1.391       .  A
C1130      H1134   1.082       .  S
C1135      C1140   1.379       .  A
C1135      C1136   1.405       .  A
C1135      O1141   1.319       .  A
C1136      C1137   1.403       .  A
C1136      H1147   1.082       .  S
C1137      C1146   1.365       .  A
C1137      C1138   1.379       .  A
C1138      C1139   1.410       .  A
C1138      O1144   1.322       .  A
C1139      C1140   1.408       .  A
C1139      H1148   1.082       .  S
C1140      C1143   1.371       .  A
O1141      C1142   1.332       .  A
C1142      C1143   1.395       .  A
C1143      H1149   1.082       .  S
O1144      C1145   1.335       .  A
C1145      C1146   1.392       .  A
C1146      H1150   1.082       .  S
C1151      C1156   1.380       .  A
C1151      C1152   1.402       .  A
C1151      O1157   1.322       .  A
C1152      C1153   1.403       .  A
C1152      H1163   1.083       .  S
C1153      C1162   1.355       .  A
C1153      C1154   1.380       .  A
C1154      C1155   1.409       .  A
C1154      O1160   1.329       .  A
C1155      C1156   1.411       .  A
C1155      H1164   1.082       .  S
C1156      C1159   1.365       .  A
O1157      C1158   1.331       .  A
C1158      C1159   1.397       .  A
C1159      H1165   1.083       .  S
O1160      C1161   1.335       .  A
C1161      C1162   1.394       .  A
C1162      H1166   1.083       .  S
C1167      C1172   1.380       .  A
C1167      C1168   1.401       .  A
C1167      O1173   1.315       .  A
C1168      C1169   1.400       .  A
C1168      H1179   1.083       .  S
C1169      C1178   1.361       .  A
C1169      C1170   1.379       .  A
C1170      C1171   1.411       .  A
C1170      O1176   1.324       .  A
C1171      C1172   1.410       .  A
C1171      H1180   1.083       .  S
C1172      C1175   1.373       .  A
O1173      C1174   1.330       .  A
C1174      C1175   1.396       .  A
C1175      H1181   1.082       .  S
O1176      C1177   1.335       .  A
C1177      C1178   1.390       .  A
C1178      H1182   1.083       .  S
C1183      C1188   1.379       .  A
C1183      C1184   1.404       .  A
C1183      O1189   1.318       .  A
C1184      C1185   1.402       .  A
C1184      H1195   1.083       .  S
C1185      C1194   1.363       .  A
C1185      C1186   1.379       .  A
C1186      C1187   1.413       .  A
C1186      O1192   1.326       .  A
C1187      C1188   1.411       .  A
C1187      H1196   1.082       .  S
C1188      C1191   1.375       .  A
O1189      C1190   1.332       .  A
C1190      C1191   1.397       .  A
C1191      H1197   1.082       .  S
O1192      C1193   1.336       .  A
C1193      C1194   1.392       .  A
C1194      H1198   1.083       .  S
C1199      C1204   1.379       .  A
C1199      C1200   1.412       .  A
C1199      O1205   1.331       .  A
C1200      C1201   1.414       .  A
C1200      H1211   1.083       .  S
C1201      C1210   1.369       .  A
C1201      C1202   1.380       .  A
C1202      C1203   1.401       .  A
C1202      O1208   1.322       .  A
C1203      C1204   1.402       .  A
C1203      H1212   1.082       .  S
C1204      C1207   1.355       .  A
O1205      C1206   1.337       .  A
C1206      C1207   1.392       .  A
C1207      H1213   1.083       .  S
O1208      C1209   1.331       .  A
C1209      C1210   1.399       .  A
C1210      H1214   1.083       .  S
C1215      C1220   1.379       .  A
C1215      C1216   1.408       .  A
C1215      O1221   1.319       .  A
C1216      C1217   1.406       .  A
C1216      H1227   1.082       .  S
C1217      C1226   1.371       .  A
C1217      C1218   1.379       .  A
C1218      C1219   1.404       .  A
C1218      O1224   1.316       .  A
C1219      C1220   1.402       .  A
C1219      H1228   1.082       .  S
C1220      C1223   1.365       .  A
O1221      C1222   1.334       .  A
C1222      C1223   1.392       .  A
C1223      H1229   1.083       .  S
O1224      C1225   1.332       .  A
C1225      C1226   1.394       .  A
C1226      H1230   1.082       .  S
C1231      C1236   1.379       .  A
C1231      C1232   1.407       .  A
C1231      O1237   1.315       .  A
C1232      C1233   1.403       .  A
C1232      H1243   1.082       .  S
C1233      C1242   1.371       .  A
C1233      C1234   1.379       .  A
C1234      C1235   1.409       .  A
C1234      O1240   1.318       .  A
C1235      C1236   1.405       .  A
C1235      H1244   1.082       .  S
C1236      C1239   1.374       .  A
O1237      C1238   1.333       .  A
C1238      C1239   1.392       .  A
C1239      H1245   1.082       .  S
O1240      C1241   1.334       .  A
C1241      C1242   1.393       .  A
C1242      H1246   1.082       .  S
C1247      C1252   1.380       .  A
C1247      C1248   1.399       .  A
C1247      O1253   1.320       .  A
C1248      C1249   1.400       .  A
C1248      H1259   1.083       .  S
C1249      C1258   1.352       .  A
C1249      C1250   1.379       .  A
C1250      C1251   1.410       .  A
C1250      O1256   1.330       .  A
C1251      C1252   1.413       .  A
C1251      H1260   1.082       .  S
C1252      C1255   1.367       .  A
O1253      C1254   1.330       .  A
C1254      C1255   1.397       .  A
C1255      H1261   1.083       .  S
O1256      C1257   1.335       .  A
C1257      C1258   1.391       .  A
C1258      H1262   1.083       .  S
C1263      C1268   1.379       .  A
C1263      C1264   1.405       .  A
C1263      O1269   1.318       .  A
C1264      C1265   1.403       .  A
C1264      H1275   1.083       .  S
C1265      C1274   1.365       .  A
C1265      C1266   1.379       .  A
C1266      C1267   1.409       .  A
C1266      O1272   1.321       .  A
C1267      C1268   1.407       .  A
C1267      H1276   1.082       .  S
C1268      C1271   1.370       .  A
O1269      C1270   1.332       .  A
C1270      C1271   1.394       .  A
C1271      H1277   1.082       .  S
O1272      C1273   1.334       .  A
C1273      C1274   1.393       .  A
C1274      H1278   1.083       .  S
C1279      C1284   1.380       .  A
C1279      C1280   1.408       .  A
C1279      O1285   1.326       .  A
C1280      C1281   1.409       .  A
C1280      H1291   1.082       .  S
C1281      C1290   1.365       .  A
C1281      C1282   1.381       .  A
C1282      C1283   1.398       .  A
C1282      O1288   1.317       .  A
C1283      C1284   1.398       .  A
C1283      H1292   1.083       .  S
C1284      C1287   1.353       .  A
O1285      C1286   1.334       .  A
C1286      C1287   1.391       .  A
C1287      H1293   1.083       .  S
O1288      C1289   1.329       .  A
C1289      C1290   1.396       .  A
C1290      H1294   1.083       .  S
C1295      C1300   1.380       .  A
C1295      C1296   1.405       .  A
C1295      O1301   1.317       .  A
C1296      C1297   1.403       .  A
C1296      H1307   1.082       .  S
C1297      C1306   1.365       .  A
C1297      C1298   1.380       .  A
C1298      C1299   1.405       .  A
C1298      O1304   1.318       .  A
C1299      C1300   1.403       .  A
C1299      H1308   1.082       .  S
C1300      C1303   1.365       .  A
O1301      C1302   1.332       .  A
C1302      C1303   1.392       .  A
C1303      H1309   1.082       .  S
O1304      C1305   1.332       .  A
C1305      C1306   1.392       .  A
C1306      H1310   1.082       .  S
C1311      C1316   1.381       .  A
C1311      C1312   1.400       .  A
C1311      O1317   1.321       .  A
C1312      C1313   1.402       .  A
C1312      H1323   1.082       .  S
C1313      C1322   1.355       .  A
C1313      C1314   1.380       .  A
C1314      C1315   1.405       .  A
C1314      O1320   1.325       .  A
C1315      C1316   1.407       .  A
C1315      H1324   1.082       .  S
C1316      C1319   1.360       .  A
O1317      C1318   1.330       .  A
C1318      C1319   1.395       .  A
C1319      H1325   1.083       .  S
O1320      C1321   1.333       .  A
C1321      C1322   1.392       .  A
C1322      H1326   1.083       .  S
C1327      C1332   1.380       .  A
C1327      C1328   1.405       .  A
C1327      O1333   1.317       .  A
C1328      C1329   1.403       .  A
C1328      H1339   1.082       .  S
C1329      C1338   1.367       .  A
C1329      C1330   1.379       .  A
C1330      C1331   1.406       .  A
C1330      O1336   1.318       .  A
C1331      C1332   1.404       .  A
C1331      H1340   1.082       .  S
C1332      C1335   1.367       .  A
O1333      C1334   1.331       .  A
C1334      C1335   1.392       .  A
C1335      H1341   1.083       .  S
O1336      C1337   1.333       .  A
C1337      C1338   1.391       .  A
C1338      H1342   1.082       .  S
C1343      C1348   1.381       .  A
C1343      C1344   1.405       .  A
C1343      O1349   1.326       .  A
C1344      C1345   1.407       .  A
C1344      H1355   1.082       .  S
C1345      C1354   1.360       .  A
C1345      C1346   1.380       .  A
C1346      C1347   1.404       .  A
C1346      O1352   1.325       .  A
C1347      C1348   1.406       .  A
C1347      H1356   1.082       .  S
C1348      C1351   1.358       .  A
O1349      C1350   1.332       .  A
C1350      C1351   1.392       .  A
C1351      H1357   1.082       .  S
O1352      C1353   1.332       .  A
C1353      C1354   1.395       .  A
C1354      H1358   1.083       .  S
C1359      C1364   1.379       .  A
C1359      C1360   1.410       .  A
C1359      O1365   1.327       .  A
C1360      C1361   1.411       .  A
C1360      H1371   1.082       .  S
C1361      C1370   1.369       .  A
C1361      C1362   1.380       .  A
C1362      C1363   1.402       .  A
C1362      O1368   1.319       .  A
C1363      C1364   1.402       .  A
C1363      H1372   1.083       .  S
C1364      C1367   1.359       .  A
O1365      C1366   1.335       .  A
C1366      C1367   1.392       .  A
C1367      H1373   1.083       .  S
O1368      C1369   1.331       .  A
C1369      C1370   1.396       .  A
C1370      H1374   1.083       .  S
C1375      C1380   1.381       .  A
C1375      C1376   1.397       .  A
C1375      O1381   1.315       .  A
C1376      C1377   1.397       .  A
C1376      H1387   1.082       .  S
C1377      C1386   1.352       .  A
C1377      C1378   1.380       .  A
C1378      C1379   1.411       .  A
C1378      O1384   1.327       .  A
C1379      C1380   1.411       .  A
C1379      H1388   1.083       .  S
C1380      C1383   1.368       .  A
O1381      C1382   1.327       .  A
C1382      C1383   1.396       .  A
C1383      H1389   1.083       .  S
O1384      C1385   1.335       .  A
C1385      C1386   1.389       .  A
C1386      H1390   1.083       .  S
C1391      C1396   1.381       .  A
C1391      C1392   1.401       .  A
C1391      O1397   1.320       .  A
C1392      C1393   1.402       .  A
C1392      H1403   1.082       .  S
C1393      C1402   1.357       .  A
C1393      C1394   1.380       .  A
C1394      C1395   1.404       .  A
C1394      O1400   1.323       .  A
C1395      C1396   1.405       .  A
C1395      H1404   1.082       .  S
C1396      C1399   1.359       .  A
O1397      C1398   1.330       .  A
C1398      C1399   1.394       .  A
C1399      H1405   1.083       .  S
O1400      C1401   1.332       .  A
C1401      C1402   1.392       .  A
C1402      H1406   1.083       .  S
C1407      C1412   1.380       .  A
C1407      C1408   1.405       .  A
C1407      O1413   1.324       .  A
C1408      C1409   1.406       .  A
C1408      H1419   1.082       .  S
C1409      C1418   1.360       .  A
C1409      C1410   1.381       .  A
C1410      C1411   1.402       .  A
C1410      O1416   1.322       .  A
C1411      C1412   1.403       .  A
C1411      H1420   1.082       .  S
C1412      C1415   1.357       .  A
O1413      C1414   1.332       .  A
C1414      C1415   1.392       .  A
C1415      H1421   1.083       .  S
O1416      C1417   1.331       .  A
C1417      C1418   1.395       .  A
C1418      H1422   1.083       .  S
C1423      C1428   1.380       .  A
C1423      C1424   1.405       .  A
C1423      O1429   1.326       .  A
C1424      C1425   1.408       .  A
C1424      H1435   1.082       .  S
C1425      C1434   1.361       .  A
C1425      C1426   1.380       .  A
C1426      C1427   1.402       .  A
C1426      O1432   1.321       .  A
C1427      C1428   1.403       .  A
C1427      H1436   1.082       .  S
C1428      C1431   1.355       .  A
O1429      C1430   1.332       .  A
C1430      C1431   1.393       .  A
C1431      H1437   1.083       .  S
O1432      C1433   1.331       .  A
C1433      C1434   1.394       .  A
C1434      H1438   1.083       .  S
C1439      C1444   1.380       .  A
C1439      C1440   1.404       .  A
C1439      O1445   1.314       .  A
C1440      C1441   1.401       .  A
C1440      H1451   1.083       .  S
C1441      C1450   1.366       .  A
C1441      C1442   1.380       .  A
C1442      C1443   1.407       .  A
C1442      O1448   1.318       .  A
C1443      C1444   1.404       .  A
C1443      H1452   1.082       .  S
C1444      C1447   1.371       .  A
O1445      C1446   1.331       .  A
C1446      C1447   1.391       .  A
C1447      H1453   1.082       .  S
O1448      C1449   1.333       .  A
C1449      C1450   1.391       .  A
C1450      H1454   1.083       .  S
C1455      C1460   1.380       .  A
C1455      C1456   1.406       .  A
C1455      O1461   1.319       .  A
C1456      C1457   1.405       .  A
C1456      H1467   1.082       .  S
C1457      C1466   1.367       .  A
C1457      C1458   1.380       .  A
C1458      C1459   1.404       .  A
C1458      O1464   1.318       .  A
C1459      C1460   1.403       .  A
C1459      H1468   1.082       .  S
C1460      C1463   1.364       .  A
O1461      C1462   1.333       .  A
C1462      C1463   1.393       .  A
C1463      H1469   1.083       .  S
O1464      C1465   1.332       .  A
C1465      C1466   1.393       .  A
C1466      H1470   1.082       .  S
C1471      C1476   1.381       .  A
C1471      C1472   1.400       .  A
C1471      O1477   1.320       .  A
C1472      C1473   1.401       .  A
C1472      H1483   1.083       .  S
C1473      C1482   1.356       .  A
C1473      C1474   1.380       .  A
C1474      C1475   1.407       .  A
C1474      O1480   1.325       .  A
C1475      C1476   1.408       .  A
C1475      H1484   1.083       .  S
C1476      C1479   1.363       .  A
O1477      C1478   1.330       .  A
C1478      C1479   1.395       .  A
C1479      H1485   1.083       .  S
O1480      C1481   1.334       .  A
C1481      C1482   1.392       .  A
C1482      H1486   1.083       .  S
C1487      C1492   1.380       .  A
C1487      C1488   1.407       .  A
C1487      O1493   1.324       .  A
C1488      C1489   1.407       .  A
C1488      H1499   1.082       .  S
C1489      C1498   1.366       .  A
C1489      C1490   1.380       .  A
C1490      C1491   1.404       .  A
C1490      O1496   1.320       .  A
C1491      C1492   1.404       .  A
C1491      H1500   1.083       .  S
C1492      C1495   1.361       .  A
O1493      C1494   1.333       .  A
C1494      C1495   1.392       .  A
C1495      H1501   1.083       .  S
O1496      C1497   1.332       .  A
C1497      C1498   1.394       .  A
C1498      H1502   1.082       .  S
C1503      C1508   1.380       .  A
C1503      C1504   1.401       .  A
C1503      O1509   1.317       .  A
C1504      C1505   1.401       .  A
C1504      H1515   1.082       .  S
C1505      C1514   1.358       .  A
C1505      C1506   1.380       .  A
C1506      C1507   1.410       .  A
C1506      O1512   1.324       .  A
C1507      C1508   1.409       .  A
C1507      H1516   1.082       .  S
C1508      C1511   1.369       .  A
O1509      C1510   1.330       .  A
C1510      C1511   1.395       .  A
C1511      H1517   1.082       .  S
O1512      C1513   1.334       .  A
C1513      C1514   1.391       .  A
C1514      H1518   1.083       .  S
