geometry optimzed in LAMMPS
_audit_creation_date              2020-11-30 
_audit_creation_method            'lammps2cif' 
_symmetry_space_group_name_H-M    'P1' 
_symmetry_Int_Tables_number       1 
_symmetry_cell_setting            triclinic 
loop_ 
_symmetry_equiv_pos_as_xyz 
  x,y,z 
_cell_length_a                    53.23974481 
_cell_length_b                    52.57661336012996 
_cell_length_c                    52.65111560069891 
_cell_angle_alpha                 89.8438127099424 
_cell_angle_beta                  89.24992352407571 
_cell_angle_gamma                 89.57089529548655 
loop_ 
_atom_site_label 
_atom_site_type_symbol 
_atom_site_fract_x 
_atom_site_fract_y 
_atom_site_fract_z 
_atom_site_charge 
O1          O  0.54279103  0.02343733  0.50695162    -0.80800
O2          O  0.44043701  0.99919463  0.47726515    -0.80800
O3          O  0.50462032  0.03217506  0.46495863    -0.80800
O4          O  0.49200865  0.03448304  0.53646544    -0.80800
O5          O  0.47938341  0.00571272  0.44507671    -0.80900
O6          O  0.52072042  0.00883364  0.55076684    -0.80800
O7          O  0.45231346  0.03046413  0.50223458    -0.80800
O8          O  0.55494002  0.01830004  0.46713998    -0.80800
C9          C  0.55921974  0.02702847  0.48903281     1.08900
C10         C  0.43764703  0.02160351  0.48568576     1.08800
C11         C  0.49083570  0.02698306  0.44619814     1.08900
C12         C  0.50724003  0.02851458  0.55374999     1.08800
O13         O  0.51023840  0.95925996  0.53419020    -0.80800
O14         O  0.49938160  0.95605744  0.46033534    -0.80900
O15         O  0.54747431  0.97284421  0.48917029    -0.80800
O16         O  0.44288976  0.98029021  0.52159115    -0.80800
O17         O  0.45999394  0.95201386  0.49529449    -0.80800
O18         O  0.55767015  0.97997874  0.52904159    -0.80800
O19         O  0.48150116  0.98282473  0.55395148    -0.80800
O20         O  0.52262856  0.98592236  0.44506108    -0.80800
Co21       Co  0.52508073  0.98973898  0.51820396     1.51500
Co22       Co  0.47147022  0.97850521  0.47130295     1.51700
Co23       Co  0.52425852  0.00362904  0.47878092     1.51600
Co24       Co  0.46887338  0.00692519  0.52663553     1.51500
O25         O  0.49297406  0.99430355  0.49885695    -1.42700
C26         C  0.49628657  0.96353437  0.55352850     1.08800
C27         C  0.51162482  0.96503260  0.44177206     1.08900
C28         C  0.56357260  0.97112166  0.50740045     1.08800
C29         C  0.44382979  0.95807466  0.51213269     1.08800
O30         O  0.95915058  0.53341851  0.49827473    -0.80800
O31         O  0.96621647  0.46051003  0.48725394    -0.80800
O32         O  0.97347864  0.50393538  0.44820768    -0.80800
O33         O  0.99396511  0.47549789  0.55284609    -0.80800
O34         O  0.98198801  0.46432962  0.43715314    -0.80900
O35         O  0.96215231  0.49902326  0.53962759    -0.80800
O36         O  0.99280468  0.44228798  0.51378027    -0.80800
O37         O  0.98524580  0.54900340  0.47055770    -0.80800
C38         C  0.96552576  0.55165040  0.48392788     1.08900
C39         C  0.97257682  0.44163375  0.50089667     1.08800
C40         C  0.97155586  0.48544699  0.43218271     1.08900
C41         C  0.97159101  0.48364542  0.55566592     1.08800
O42         O  0.00950619  0.52067919  0.55139716    -0.80800
O43         O  0.02490140  0.48879553  0.44669783    -0.80900
O44         O  0.03397516  0.53344748  0.48340391    -0.80800
O45         O  0.04151877  0.46137728  0.49621074    -0.80800
O46         O  0.01439337  0.44461822  0.47121000    -0.80800
O47         O  0.00874066  0.55227669  0.51153641    -0.80800
O48         O  0.04036026  0.49659602  0.53595928    -0.80800
O49         O  0.01595684  0.52793408  0.43453125    -0.80800
Co50       Co  0.98504202  0.52443611  0.52344158     1.51500
Co51       Co  0.99406734  0.47671112  0.46856068     1.51700
Co52       Co  0.00521877  0.51672796  0.46737554     1.51600
Co53       Co  0.01677935  0.47073314  0.52298702     1.51500
O54         O  0.00030621  0.49724220  0.50014646    -1.42700
C55         C  0.03220779  0.51324354  0.55148363     1.08800
C56         C  0.02625592  0.50664191  0.42978651     1.08900
C57         C  0.02874533  0.55220634  0.49777460     1.08800
C58         C  0.03483747  0.44270525  0.48296355     1.08800
O59         O  0.47099002  0.48069451  0.97701000    -0.80800
O60         O  0.54512158  0.52028338  0.97690396    -0.80800
O61         O  0.48547101  0.55169355  0.98220323    -0.80800
O62         O  0.51912187  0.45104157  0.99123613    -0.80800
O63         O  0.52264043  0.56197483  0.99744310    -0.80900
O64         O  0.48130041  0.43896980  0.00563312    -0.80800
O65         O  0.55747842  0.48265223  0.98672131    -0.80800
O66         O  0.44996820  0.51468858  0.98987901    -0.80800
C67         C  0.45181665  0.49517000  0.97588449     1.08900
C68         C  0.56100407  0.50238726  0.97406992     1.08800
C69         C  0.50394253  0.56672210  0.98306452     1.08900
C70         C  0.50168668  0.43409735  0.99351142     1.08800
O71         O  0.49625614  0.46539578  0.04661221    -0.80800
O72         O  0.52227499  0.53834370  0.04719936    -0.80900
O73         O  0.45866395  0.51721948  0.04313275    -0.80800
O74         O  0.55613511  0.49711697  0.03502528    -0.80800
O75         O  0.56576733  0.53599851  0.02055943    -0.80800
O76         O  0.45123476  0.47966027  0.02674877    -0.80800
O77         O  0.53393774  0.45539062  0.03603927    -0.80800
O78         O  0.48880892  0.55900372  0.03510626    -0.80800
Co79       Co  0.48558933  0.47446353  0.01103483     1.51500
Co80       Co  0.53209005  0.52755831  0.01237313     1.51700
Co81       Co  0.47235218  0.53407459  0.01252187     1.51600
Co82       Co  0.52992495  0.48248606  0.01125387     1.51500
O83         O  0.50058336  0.50867476  0.00994578    -1.42700
C84         C  0.51496926  0.45058475  0.04914109     1.08800
C85         C  0.50788795  0.55746341  0.04900292     1.08900
C86         C  0.44460584  0.49810038  0.04100497     1.08800
C87         C  0.57132994  0.51610653  0.03337970     1.08800
C88         C  0.56535669  0.91424028  0.72300016     0.79600
N89         N  0.56160623  0.92874601  0.74423997    -0.78800
C90         C  0.57661697  0.92555746  0.76490106     0.82000
N91         N  0.59531350  0.90774660  0.76403422    -0.78700
C92         C  0.59921203  0.89313230  0.74309175     0.82100
N93         N  0.58415163  0.89656621  0.72275817    -0.80400
C94         C  0.75418020  0.72101762  0.76002755     0.79600
N95         N  0.77321996  0.72189068  0.74258757    -0.78800
C96         C  0.77340157  0.73994082  0.72400789     0.82000
N97         N  0.75444541  0.75745819  0.72332521    -0.78700
C98         C  0.73536483  0.75695600  0.74078211     0.82100
N99         N  0.73531608  0.73853539  0.75899104    -0.80400
C100        C  0.93079805  0.72548806  0.55336216     0.79600
N101        N  0.94525744  0.74664844  0.55000753    -0.78800
C102        C  0.94223455  0.76699119  0.56592163     0.82000
N103        N  0.92481546  0.76584169  0.58502067    -0.78700
C104        C  0.91042296  0.74494480  0.58855655     0.82100
N105        N  0.91354624  0.72494411  0.57262003    -0.80400
C106        C  0.77755046  0.56496705  0.93195417     0.79600
N107        N  0.77715302  0.58333694  0.91367183    -0.78800
C108        C  0.75591381  0.58869248  0.90073013     0.82000
N109        N  0.73485443  0.57534823  0.90606945    -0.78700
C110        C  0.73471600  0.55665399  0.92396951     0.82100
N111        N  0.75618845  0.55149869  0.93707401    -0.80400
C112        C  0.28672444  0.24360214  0.72874506     0.79600
N113        N  0.28575680  0.26214018  0.74655815    -0.78800
C114        C  0.26754598  0.28025570  0.74630927     0.82000
N115        N  0.24998468  0.27975531  0.72786571    -0.78700
C116        C  0.25067107  0.26137160  0.70973920     0.82100
N117        N  0.26908587  0.24327934  0.71033089    -0.80400
C118        C  0.28455045  0.42890155  0.92104750     0.79600
N119        N  0.26362895  0.43122811  0.93617522    -0.78800
C120        C  0.24222185  0.41849575  0.93020981     0.82000
N121        N  0.24194464  0.40367050  0.90908503    -0.78700
C122        C  0.26256986  0.40149859  0.89385563     0.82100
N123        N  0.28364854  0.41410575  0.90005703    -0.80400
C124        C  0.44097907  0.07717437  0.77085353     0.79600
N125        N  0.45552640  0.07028055  0.75032702    -0.78800
C126        C  0.45252396  0.08247220  0.72756990     0.82000
N127        N  0.43481759  0.10100553  0.72548539    -0.78700
C128        C  0.42007158  0.10769289  0.74549592     0.82100
N129        N  0.42335868  0.09579063  0.76806485    -0.80400
C130        C  0.07891771  0.22922903  0.56397436     0.79600
N131        N  0.07235001  0.24968465  0.54929510    -0.78800
C132        C  0.08577349  0.27173792  0.55065428     0.82000
N133        N  0.10545509  0.27310919  0.56677195    -0.78700
C134        C  0.11195109  0.25302279  0.58149913     0.82100
N135        N  0.09863742  0.23128972  0.57988779    -0.80400
O136        O  0.47123049  0.01757216  0.96492387    -0.80800
O137        O  0.46829354  0.98863608  0.03895133    -0.80800
O138        O  0.47092542  0.95144314  0.98719519    -0.80800
O139        O  0.48323312  0.04984965  0.00838350    -0.80800
O140        O  0.48609576  0.94346843  0.02524849    -0.80900
O141        O  0.49952273  0.05953619  0.97023465    -0.80800
O142        O  0.47911618  0.02570107  0.05038996    -0.80800
O143        O  0.48141288  0.98216116  0.94553878    -0.80800
C144        C  0.46970764  0.00317227  0.94579611     1.08900
C145        C  0.46560154  0.00691561  0.05431169     1.08800
C146        C  0.47082139  0.93862105  0.00758720     1.08900
C147        C  0.48613782  0.06559741  0.98972877     1.08800
O148        O  0.54083404  0.03355461  0.98677683    -0.80800
O149        O  0.53648397  0.95988700  0.02418891    -0.80900
O150        O  0.53318575  0.97507962  0.95319813    -0.75000
O151        O  0.52354284  0.00861328  0.05417224    -0.80800
O152        O  0.50797872  0.97107011  0.06601948    -0.80800
O153        O  0.52069621  0.01424526  0.94348447    -0.80800
O154        O  0.52983687  0.04623127  0.02405593    -0.80800
O155        O  0.52304092  0.93899225  0.99082243    -0.80800
Co156      Co  0.50545032  0.02420786  0.97770320     1.51500
Co157      Co  0.50340111  0.97654776  0.03042549     1.51700
Co158      Co  0.50221403  0.96353675  0.97085694     1.51600
Co159      Co  0.50390929  0.02079384  0.02316235     1.51500
O160        O  0.50486285  0.99179437  0.99629448    -1.42700
C161        C  0.54397461  0.04858697  0.00520922     1.08800
C162        C  0.53672888  0.94011713  0.01036477     1.08900
C163        C  0.53303119  0.99391347  0.93799856     1.08800
C164        C  0.52075535  0.99083335  0.07096905     1.08800
C165        C  0.25711639  0.76135561  0.79114275     0.79600
N166        N  0.23827867  0.74403609  0.79010582    -0.78800
C167        C  0.22047934  0.74579996  0.77190225     0.82000
N168        N  0.22162741  0.76507296  0.75478952    -0.78700
C169        C  0.24035009  0.78230964  0.75542988     0.82100
N170        N  0.25818222  0.78035504  0.77354942    -0.80400
C171        C  0.42650901  0.73176817  0.94278305     0.79600
N172        N  0.40727621  0.73178086  0.92599581    -0.78800
C173        C  0.39062708  0.75150596  0.92525247     0.82000
N174        N  0.39348987  0.77130204  0.94137766    -0.78700
C175        C  0.41259399  0.77165225  0.95815163     0.82100
N176        N  0.42908225  0.75182153  0.95876780    -0.80400
C177        C  0.23258367  0.93017773  0.57584422     0.79600
N178        N  0.22971913  0.91598626  0.59732830    -0.78800
C179        C  0.24902642  0.90180028  0.60621258     0.82000
N180        N  0.27121630  0.90171375  0.59350854    -0.78700
C181        C  0.27442760  0.91531455  0.57182283     0.82100
N182        N  0.25499203  0.92971122  0.56297280    -0.80400
C183        C  0.05205210  0.59015439  0.76318227     0.79600
N184        N  0.07000857  0.60790099  0.76690091    -0.78800
C185        C  0.08636789  0.61418557  0.74807717     0.82000
N186        N  0.08445661  0.60272589  0.72519167    -0.78700
C187        C  0.06669266  0.58488407  0.72102296     0.82100
N188        N  0.05056978  0.57836310  0.74023989    -0.80400
C189        C  0.74769077  0.26592145  0.23653414     0.79600
N190        N  0.76490671  0.26545323  0.25535338    -0.78800
C191        C  0.76470724  0.24669601  0.27312619     0.82000
N192        N  0.74698314  0.22829335  0.27212635    -0.78700
C193        C  0.72933259  0.22867952  0.25366558     0.82100
N194        N  0.72988295  0.24751870  0.23589496    -0.80400
C195        C  0.92804477  0.27108753  0.43109300     0.79600
N196        N  0.94294624  0.25024579  0.43459813    -0.78800
C197        C  0.93893901  0.22858185  0.42116848     0.82000
N198        N  0.91976145  0.22776884  0.40440836    -0.78700
C199        C  0.90484659  0.24843293  0.40075088     0.82100
N200        N  0.90914586  0.27002636  0.41401495    -0.80400
C201        C  0.77627177  0.42598269  0.06928647     0.79600
N202        N  0.77593653  0.40733245  0.08729788    -0.78800
C203        C  0.75454545  0.40227758  0.10071607     0.82000
N204        N  0.73343305  0.41588334  0.09574701    -0.78700
C205        C  0.73352419  0.43454850  0.07794562     0.82100
N206        N  0.75502206  0.43963308  0.06484630    -0.80400
C207        C  0.55863058  0.07690179  0.27865235     0.79600
N208        N  0.55480586  0.06172972  0.25823872    -0.78800
C209        C  0.56927269  0.06414548  0.23693240     0.82000
N210        N  0.58769281  0.08190914  0.23616372    -0.78700
C211        C  0.59169609  0.09726863  0.25639066     0.82100
N212        N  0.57706509  0.09462282  0.27755255    -0.80400
O213        O  0.96744475  0.52506621  0.97657860    -0.80800
O214        O  0.04169865  0.52712499  0.00426381    -0.80800
O215        O  0.99973251  0.51718661  0.03819996    -0.80800
O216        O  0.02103062  0.52141295  0.93959680    -0.80800
O217        O  0.03756653  0.50174984  0.04844483    -0.80900
O218        O  0.98336171  0.50515694  0.93304955    -0.80800
O219        O  0.06227694  0.51376252  0.97071817    -0.80800
O220        O  0.95679467  0.51663883  0.01473623    -0.80800
C221        C  0.95184999  0.52800043  0.99468226     1.08900
C222        C  0.06123245  0.52751443  0.99038098     1.08800
C223        C  0.01842968  0.51573554  0.05357871     1.08900
C224        C  0.00080340  0.52068042  0.92718521     1.08800
O225        O  0.98576089  0.45505530  0.95373160    -0.80800
O226        O  0.02147160  0.45780765  0.02723662    -0.80900
O227        O  0.95615269  0.47027841  0.00165350    -0.80800
O228        O  0.05497821  0.46088949  0.96812429    -0.80800
O229        O  0.06349282  0.47714239  0.00587369    -0.80800
O230        O  0.94307739  0.48227878  0.96319914    -0.80800
O231        O  0.01814970  0.46823351  0.93109874    -0.80800
O232        O  0.98502034  0.46970509  0.04035035    -0.80800
Co233      Co  0.97801060  0.48929592  0.96740081     1.51500
Co234      Co  0.02969875  0.49291049  0.01438639     1.51700
Co235      Co  0.98527442  0.49311491  0.01188197     1.51600
Co236      Co  0.03741813  0.49106453  0.95403725     1.51500
O237        O  0.01164270  0.49044394  0.98241344    -1.42700
C238        C  0.99885618  0.45432893  0.93346792     1.08800
C239        C  0.00384357  0.45594296  0.04346795     1.08900
C240        C  0.93906785  0.47098325  0.98439208     1.08800
C241        C  0.06922550  0.46255671  0.98725579     1.08800
C242        C  0.22753115  0.05941558  0.40691039     0.79600
N243        N  0.24943643  0.05519131  0.41958784    -0.78800
C244        C  0.27076563  0.06788243  0.41252927     0.82000
N245        N  0.26985730  0.08458597  0.39283150    -0.78700
C246        C  0.24823929  0.08912148  0.38033035     0.82100
N247        N  0.22719425  0.07657558  0.38751808    -0.80400
C248        C  0.25097636  0.23173907  0.25157848     0.79600
N249        N  0.27066514  0.23373229  0.23509778    -0.78800
C250        C  0.27190879  0.25328314  0.21823674     0.82000
N251        N  0.25338720  0.27120206  0.21835441    -0.78700
C252        C  0.23369772  0.26963473  0.23498713     0.82100
N253        N  0.23248960  0.24966578  0.25142179    -0.80400
C254        C  0.07400565  0.43646576  0.25908779     0.79600
N255        N  0.05903148  0.43836159  0.23826405    -0.78800
C256        C  0.06372882  0.42336172  0.21761193     0.82000
N257        N  0.08334963  0.40681346  0.21798661    -0.78700
C258        C  0.09832445  0.40474118  0.23840495     0.82100
N259        N  0.09351780  0.41957156  0.25893166    -0.80400
C260        C  0.45013896  0.27684893  0.07273618     0.79600
N261        N  0.42989351  0.27674495  0.08870742    -0.78800
C262        C  0.41426717  0.25659628  0.08990779     0.82000
N263        N  0.41901724  0.23623935  0.07487634    -0.78700
C264        C  0.43901930  0.23587442  0.05857433     0.82100
N265        N  0.45469018  0.25631894  0.05751731    -0.80400
C266        C  0.75131448  0.25639687  0.74389233     0.79600
N267        N  0.75340501  0.23585832  0.72835164    -0.78800
C268        C  0.73652227  0.21660178  0.73009122     0.82000
N269        N  0.71749887  0.21813029  0.74747881    -0.78700
C270        C  0.71519701  0.23855525  0.76303114     0.82100
N271        N  0.73221090  0.25751802  0.76114817    -0.80400
C272        C  0.90661655  0.42518513  0.72536802     0.79600
N273        N  0.88827060  0.40739153  0.72495885    -0.78800
C274        C  0.88293385  0.39308222  0.74577337     0.82000
N275        N  0.89619198  0.39671068  0.76728462    -0.78700
C276        C  0.91458940  0.41443599  0.76824985     0.82100
N277        N  0.91981585  0.42862549  0.74712470    -0.80400
C278        C  0.57836386  0.22119778  0.94678824     0.79600
N279        N  0.56520244  0.24248596  0.95352563    -0.78800
C280        C  0.56602343  0.26349755  0.93829934     0.82000
N281        N  0.57989616  0.26289295  0.91646483    -0.78700
C282        C  0.59286499  0.24173609  0.90959948     0.82100
N283        N  0.59201251  0.22107840  0.92488437    -0.80400
C284        C  0.72557504  0.05594986  0.56747878     0.79600
N285        N  0.72489024  0.07188160  0.58769914    -0.78800
C286        C  0.74468511  0.07388461  0.60339270     0.82000
N287        N  0.76556334  0.05970279  0.59868747    -0.78700
C288        C  0.76679367  0.04350385  0.57861325     0.82100
N289        N  0.74666991  0.04167770  0.56288320    -0.80400
C290        C  0.76601717  0.75796304  0.28380572     0.79600
N291        N  0.74700332  0.75862762  0.26697035    -0.78800
C292        C  0.74872309  0.74552416  0.24486855     0.82000
N293        N  0.76964282  0.73135182  0.23981744    -0.78700
C294        C  0.78887028  0.73056473  0.25653792     0.82100
N295        N  0.78695531  0.74404961  0.27845315    -0.80400
C296        C  0.73667832  0.91434984  0.45077724     0.79600
N297        N  0.73606110  0.89285874  0.43652460    -0.78800
C298        C  0.75691575  0.88392305  0.42467233     0.82000
N299        N  0.77860944  0.89676520  0.42666420    -0.78700
C300        C  0.77990494  0.91862029  0.44018533     0.82100
N301        N  0.75873122  0.92755426  0.45243328    -0.80400
C302        C  0.95095696  0.56951049  0.22094889     0.79600
N303        N  0.93548435  0.59015044  0.22177961    -0.78800
C304        C  0.92119253  0.59508692  0.24267832     0.82000
N305        N  0.92240647  0.57908578  0.26285274    -0.78700
C306        C  0.93776220  0.55838299  0.26242275     0.82100
N307        N  0.95211579  0.55363662  0.24138723    -0.80400
C308        C  0.58535357  0.77105546  0.08706159     0.79600
N309        N  0.60288189  0.77129626  0.10560414    -0.78800
C310        C  0.60810807  0.75010303  0.11924976     0.82000
N311        N  0.59567977  0.72843774  0.11419834    -0.78700
C312        C  0.57805865  0.72748730  0.09589496     0.82100
N313        N  0.57280840  0.74898954  0.08221201    -0.80400
C314        C  0.23933798  0.75273789  0.26665015     0.79600
N315        N  0.23811204  0.73523942  0.24776282    -0.78800
C316        C  0.25629543  0.73393740  0.22948066     0.82000
N317        N  0.27579988  0.75043856  0.23003149    -0.78700
C318        C  0.27713716  0.76829079  0.24859078     0.82100
N319        N  0.25890250  0.76920513  0.26689820    -0.80400
C320        C  0.44383382  0.92583410  0.26849556     0.79600
N321        N  0.44601996  0.94118752  0.24760321    -0.78800
C322        C  0.43176330  0.93675749  0.22672510     0.82000
N323        N  0.41537705  0.91706533  0.22709645    -0.78700
C324        C  0.41295677  0.90170985  0.24767010     0.82100
N325        N  0.42729383  0.90620824  0.26827091    -0.80400
C326        C  0.07851120  0.76679595  0.43234120     0.79600
N327        N  0.07359146  0.74474700  0.44500165    -0.78800
C328        C  0.08786219  0.72355962  0.44045466     0.82000
N329        N  0.10696519  0.72466840  0.42302881    -0.78700
C330        C  0.11201237  0.74663327  0.41037808     0.82100
N331        N  0.09769051  0.76746578  0.41518570    -0.80400
C332        C  0.27064017  0.55825778  0.07953878     0.79600
N333        N  0.27095247  0.57802344  0.09608954    -0.78800
C334        C  0.25013420  0.59230478  0.10048530     0.82000
N335        N  0.22871251  0.58682011  0.08814349    -0.78700
C336        C  0.22790559  0.56745785  0.07110013     0.82100
N337        N  0.24906731  0.55308483  0.06677174    -0.80400
O338        O  0.98958230  0.95828587  0.52994083    -0.80800
O339        O  0.02504044  0.03552187  0.53215973    -0.80800
O340        O  0.05605160  0.98845801  0.51835512    -0.80800
O341        O  0.95490079  0.01649861  0.52734165    -0.80800
O342        O  0.06696479  0.02672215  0.50337927    -0.80900
O343        O  0.94766920  0.97857701  0.51044096    -0.80800
O344        O  0.99037771  0.05514694  0.52032178    -0.80800
O345        O  0.02706519  0.94673551  0.52000872    -0.80800
C346        C  0.00728111  0.94226037  0.53206420     1.08900
C347        C  0.01021231  0.05453138  0.53342207     1.08800
C348        C  0.07224379  0.00657999  0.51590832     1.08900
C349        C  0.94125957  0.99684118  0.52528407     1.08800
O350        O  0.97033551  0.98166579  0.46068345    -0.80800
O351        O  0.04117898  0.01094503  0.46218357    -0.80900
O352        O  0.01382292  0.95021320  0.47173946    -0.80800
O353        O  0.98814241  0.04646731  0.46697128    -0.80800
O354        O  0.02536437  0.05521288  0.48246294    -0.80800
O355        O  0.97616813  0.93695608  0.48543139    -0.80800
O356        O  0.94850480  0.01414841  0.47461439    -0.80800
O357        O  0.05481908  0.97432169  0.47294809    -0.80800
Co358      Co  0.98199623  0.97148470  0.49492340     1.51500
Co359      Co  0.03193254  0.02097212  0.49798968     1.51700
Co360      Co  0.02663928  0.97602247  0.49717620     1.51600
Co361      Co  0.97226003  0.03149857  0.49746232     1.51500
O362        O  0.99887506  0.00419144  0.49886882    -1.42700
C363        C  0.95055681  0.99511481  0.46019122     1.08800
C364        C  0.05760304  0.99361847  0.45949003     1.08900
C365        C  0.99660148  0.93303780  0.47290393     1.08800
C366        C  0.00715819  0.06065319  0.46797845     1.08800
C367        C  0.03415522  0.81574151  0.46173889    -0.11500
C368        C  0.03578806  0.83564815  0.44385797     0.05600
C369        C  0.05066073  0.83209293  0.42190982    -0.10300
C370        C  0.06427419  0.80970593  0.41830685    -0.11900
C371        C  0.06304458  0.78995830  0.43630287    -0.01700
C372        C  0.04752377  0.79299623  0.45787290    -0.10800
C373        C  0.02335577  0.86059149  0.44854576     0.05700
H374        H  0.05189541  0.84668066  0.40738603     0.07600
H375        H  0.07575326  0.80789870  0.40128348     0.11000
H376        H  0.04626362  0.77810295  0.47208979     0.11300
H377        H  0.02318885  0.81798261  0.47903788     0.07600
C378        C  0.00001898  0.86245909  0.46136361    -0.11500
C379        C  0.98976874  0.88629568  0.46756612    -0.10800
C380        C  0.00264891  0.90852204  0.46084477    -0.01700
C381        C  0.02505786  0.90658127  0.44652705    -0.11900
C382        C  0.03547624  0.88300112  0.44087087    -0.10300
H383        H  0.99001506  0.84553632  0.46718000     0.07600
H384        H  0.97263366  0.88727111  0.47884655     0.11300
H385        H  0.03558720  0.92333650  0.44108458     0.11000
H386        H  0.05368701  0.88247984  0.43148785     0.07600
C387        C  0.23148774  0.63761874  0.15313550    -0.11500
C388        C  0.25230550  0.65402095  0.15387983     0.05600
C389        C  0.27225673  0.64984201  0.13649047    -0.10300
C390        C  0.27168340  0.62959814  0.11935176    -0.11900
C391        C  0.25078576  0.61356355  0.11862076    -0.01700
C392        C  0.23060873  0.61788553  0.13543369    -0.10800
C393        C  0.25332161  0.67507750  0.17287481     0.05700
H394        H  0.28834627  0.66232828  0.13586112     0.07600
H395        H  0.28733916  0.62674986  0.10633738     0.11000
H396        H  0.21438195  0.60553172  0.13532477     0.11300
H397        H  0.21602146  0.63963238  0.16647369     0.07600
C398        C  0.23116291  0.68695678  0.18196209    -0.11500
C399        C  0.23210402  0.70599394  0.20041685    -0.10800
C400        C  0.25526770  0.71416746  0.20967402    -0.01700
C401        C  0.27743710  0.70286871  0.20031055    -0.11900
C402        C  0.27649656  0.68332121  0.18241542    -0.10300
H403        H  0.21296200  0.68174733  0.17473308     0.07600
H404        H  0.21475414  0.71458322  0.20719728     0.11300
H405        H  0.29554596  0.70865282  0.20741119     0.11000
H406        H  0.29395441  0.67439004  0.17653902     0.07600
C407        C  0.16003670  0.72678270  0.36030948    -0.11500
C408        C  0.16736631  0.75040356  0.35015471     0.05600
C409        C  0.15721882  0.77274624  0.36079056    -0.10300
C410        C  0.13966683  0.77147841  0.38069413    -0.11900
C411        C  0.13194995  0.74783138  0.39053129    -0.01700
C412        C  0.14258535  0.72550775  0.38034431    -0.10800
C413        C  0.18528752  0.75167987  0.32834264     0.05700
H414        H  0.16236118  0.79121365  0.35328717     0.07600
H415        H  0.13191665  0.78907466  0.38816335     0.11000
H416        H  0.13704672  0.70701588  0.38747597     0.11300
H417        H  0.16784157  0.70924990  0.35276205     0.07600
C418        C  0.20437444  0.76999899  0.32760034    -0.11500
C419        C  0.22163562  0.77067341  0.30736249    -0.10800
C420        C  0.22016457  0.75306908  0.28737114    -0.01700
C421        C  0.20067927  0.73515156  0.28785768    -0.11900
C422        C  0.18347779  0.73445541  0.30810967    -0.10300
H423        H  0.20633473  0.78344342  0.34298013     0.07600
H424        H  0.23636086  0.78475976  0.30761497     0.11300
H425        H  0.19884334  0.72140521  0.27273104     0.11000
H426        H  0.16867506  0.72044726  0.30789975     0.07600
C427        C  0.33387141  0.80675841  0.22765112    -0.11500
C428        C  0.33749206  0.82260161  0.24872388     0.05600
C429        C  0.32146128  0.82005685  0.26997451    -0.10300
C430        C  0.30196446  0.80236935  0.26998673    -0.11900
C431        C  0.29819436  0.78663747  0.24882707    -0.01700
C432        C  0.31452903  0.78889950  0.22774280    -0.10800
C433        C  0.35744936  0.84221604  0.24826580     0.05700
H434        H  0.32364383  0.83217621  0.28638471     0.07600
H435        H  0.28978980  0.80110959  0.28657135     0.11000
H436        H  0.31219568  0.77709804  0.21112899     0.11300
H437        H  0.34608598  0.80812993  0.21110242     0.07600
C438        C  0.37251109  0.84627124  0.26958525    -0.11500
C439        C  0.39078576  0.86529142  0.26931738    -0.10800
C440        C  0.39429549  0.88080296  0.24776314    -0.01700
C441        C  0.37933660  0.87652173  0.22636741    -0.11900
C442        C  0.36119146  0.85744109  0.22660705    -0.10300
H443        H  0.37021091  0.83464123  0.28645293     0.07600
H444        H  0.40199682  0.86796816  0.28609529     0.11300
H445        H  0.38143243  0.88808921  0.20943513     0.11000
H446        H  0.34967714  0.85496288  0.21000332     0.07600
C447        C  0.84812718  0.93370973  0.42544720    -0.11500
C448        C  0.85259413  0.95523988  0.44030130     0.05600
C449        C  0.83246728  0.96544707  0.45487921    -0.10300
C450        C  0.80864099  0.95398704  0.45489969    -0.11900
C451        C  0.80451284  0.93203195  0.44041923    -0.01700
C452        C  0.82461522  0.92227894  0.42557982    -0.10800
C453        C  0.87842856  0.96613761  0.44120340     0.05700
H454        H  0.83528308  0.98189739  0.46680952     0.07600
H455        H  0.79365532  0.96205107  0.46648156     0.11000
H456        H  0.82234747  0.90557455  0.41387011     0.11300
H457        H  0.86285506  0.92560017  0.41356527     0.07600
C458        C  0.89977995  0.95007700  0.44069579    -0.11500
C459        C  0.92391061  0.95988641  0.44395279    -0.10800
C460        C  0.92729337  0.98598551  0.44806245    -0.01700
C461        C  0.90616986  0.00224959  0.44681971    -0.11900
C462        C  0.88206058  0.99246500  0.44343375    -0.10300
H463        H  0.89779395  0.92965401  0.43926891     0.07600
H464        H  0.93961254  0.94677391  0.44530515     0.11300
H465        H  0.90808870  0.02248476  0.45005245     0.11000
H466        H  0.86620265  0.00546201  0.44330505     0.07600
C467        C  0.65490273  0.72680979  0.16754101    -0.11500
C468        C  0.66666246  0.74945927  0.17451592     0.05600
C469        C  0.65840706  0.77259390  0.16403113    -0.10300
C470        C  0.63915402  0.77293570  0.14624881    -0.11900
C471        C  0.62770090  0.75016880  0.13886369    -0.01700
C472        C  0.63555936  0.72714845  0.14998651    -0.10800
C473        C  0.68782541  0.74875734  0.19232576     0.05700
H474        H  0.66727641  0.79029421  0.16911064     0.07600
H475        H  0.63342652  0.79098885  0.13812349     0.11000
H476        H  0.62708072  0.70927311  0.14484194     0.11300
H477        H  0.66072117  0.70878574  0.17568620     0.07600
C478        C  0.68874562  0.76592107  0.21261212    -0.11500
C479        C  0.70853581  0.76484121  0.22969579    -0.10800
C480        C  0.72791355  0.74671680  0.22663238    -0.01700
C481        C  0.72710541  0.72976337  0.20610733    -0.11900
C482        C  0.70718023  0.73070003  0.18917936    -0.10300
H483        H  0.67392599  0.77990647  0.21548333     0.07600
H484        H  0.70865185  0.77824225  0.24525790     0.11300
H485        H  0.74174900  0.71560076  0.20322270     0.11000
H486        H  0.70697781  0.71744815  0.17348765     0.07600
C487        C  0.87498444  0.64445689  0.26695744    -0.11500
C488        C  0.87013059  0.65866264  0.24495003     0.05600
C489        C  0.88266650  0.65234528  0.22219247    -0.10300
C490        C  0.89969661  0.63197388  0.22147339    -0.11900
C491        C  0.90415866  0.61739932  0.24343811    -0.01700
C492        C  0.89173853  0.62400221  0.26620599    -0.10800
C493        C  0.85111025  0.67921793  0.24583939     0.05700
H494        H  0.87923989  0.66313725  0.20501833     0.07600
H495        H  0.90901097  0.62739426  0.20363840     0.11000
H496        H  0.89476882  0.61324273  0.28347349     0.11300
H497        H  0.86528282  0.64878272  0.28465612     0.07600
C498        C  0.83176734  0.68010024  0.22799952    -0.11500
C499        C  0.81189319  0.69740460  0.23092003    -0.10800
C500        C  0.81111498  0.71417052  0.25169833    -0.01700
C501        C  0.83122349  0.71409440  0.26874363    -0.11900
C502        C  0.85097386  0.69674653  0.26587176    -0.10300
H503        H  0.83142581  0.66662175  0.21248396     0.07600
H504        H  0.79674839  0.69701701  0.21740599     0.11300
H505        H  0.83140056  0.72694714  0.28477673     0.11000
H506        H  0.86588324  0.69658769  0.27967395     0.07600
C507        C  0.73823086  0.79270776  0.34024608    -0.11500
C508        C  0.75969141  0.80364963  0.35090358     0.05600
C509        C  0.78338820  0.79805124  0.34001951    -0.10300
C510        C  0.78552902  0.78242291  0.31873640    -0.11900
C511        C  0.76397065  0.77257206  0.30751435    -0.01700
C512        C  0.74034863  0.77758437  0.31858201    -0.10800
C513        C  0.75734797  0.82214535  0.37211627     0.05700
H514        H  0.80032771  0.80651174  0.34728029     0.07600
H515        H  0.80393008  0.77892624  0.31044015     0.11000
H516        H  0.72345447  0.76983897  0.31042032     0.11300
H517        H  0.71977042  0.79603300  0.34841806     0.07600
C518        C  0.73661070  0.83888784  0.37368411    -0.11500
C519        C  0.73575960  0.85815635  0.39185978    -0.10800
C520        C  0.75591432  0.86142039  0.40834364    -0.01700
C521        C  0.77616448  0.84427423  0.40753505    -0.11900
C522        C  0.77670520  0.82455411  0.38988209    -0.10300
H523        H  0.72152801  0.83797303  0.36011412     0.07600
H524        H  0.72007651  0.87137214  0.39206941     0.11300
H525        H  0.79178967  0.84638936  0.42035194     0.11000
H526        H  0.79257564  0.81160991  0.38979692     0.07600
C527        C  0.83316212  0.01880838  0.58681145    -0.11500
C528        C  0.83946127  0.01027103  0.56227664     0.05600
C529        C  0.82056649  0.00997966  0.54377833    -0.10300
C530        C  0.79641586  0.01950612  0.54932618    -0.11900
C531        C  0.79073056  0.02961942  0.57342253    -0.01700
C532        C  0.80918420  0.02839197  0.59229574    -0.10800
C533        C  0.86609654  0.00407877  0.55547194     0.05700
H534        H  0.82479213  0.00367340  0.52464136     0.07600
H535        H  0.78262808  0.02012177  0.53437617     0.11000
H536        H  0.80536890  0.03557795  0.61121054     0.11300
H537        H  0.84704225  0.01874635  0.60168241     0.07600
C538        C  0.88560338  0.01920730  0.56480460    -0.11500
C539        C  0.91032910  0.01566232  0.55625880    -0.10800
C540        C  0.91627658  0.99688851  0.53815152    -0.01700
C541        C  0.89707541  0.98078107  0.52986575    -0.11900
C542        C  0.87223032  0.98441065  0.53836583    -0.10300
H543        H  0.88160925  0.03473384  0.57772635     0.07600
H544        H  0.92462950  0.02846165  0.56299851     0.11300
H545        H  0.90098385  0.96626566  0.51578839     0.11000
H546        H  0.85770506  0.97223307  0.53103640     0.07600
C547        C  0.72214197  0.15388166  0.69839160    -0.11500
C548        C  0.74197012  0.15166728  0.68067744     0.05600
C549        C  0.76052536  0.17052582  0.67989975    -0.10300
C550        C  0.75893742  0.19152378  0.69607540    -0.11900
C551        C  0.73878150  0.19403547  0.71342292    -0.01700
C552        C  0.72057761  0.17480040  0.71459584    -0.10800
C553        C  0.74256634  0.13046742  0.66219409     0.05700
H554        H  0.77589094  0.16943116  0.66624367     0.07600
H555        H  0.77332945  0.20591449  0.69474468     0.11000
H556        H  0.70488397  0.17599019  0.72785348     0.11300
H557        H  0.70776387  0.13946382  0.69963611     0.07600
C558        C  0.76524998  0.11807898  0.65581810    -0.11500
C559        C  0.76587134  0.09914046  0.63722774    -0.10800
C560        C  0.74385470  0.09239303  0.62450976    -0.01700
C561        C  0.72108853  0.10439805  0.63135653    -0.11900
C562        C  0.72045474  0.12317334  0.65001842    -0.10300
H563        H  0.78251729  0.12314254  0.66511610     0.07600
H564        H  0.78371058  0.09023227  0.63241099     0.11300
H565        H  0.70376948  0.09959657  0.62201320     0.11000
H566        H  0.70273848  0.13257214  0.65434729     0.07600
C567        C  0.65972919  0.22034242  0.80476557    -0.11500
C568        C  0.65828687  0.24105604  0.82150634     0.05600
C569        C  0.67493772  0.26139051  0.81823770    -0.10300
C570        C  0.69311651  0.26076326  0.79895033    -0.11900
C571        C  0.69498589  0.23978680  0.78250350    -0.01700
C572        C  0.67787283  0.21972679  0.78540212    -0.10800
C573        C  0.64033305  0.24094084  0.84311510     0.05700
H574        H  0.67439737  0.27743992  0.83108915     0.07600
H575        H  0.70598336  0.27654961  0.79725662     0.11000
H576        H  0.67870864  0.20335658  0.77297909     0.11300
H577        H  0.64689788  0.20455067  0.80676485     0.07600
C578        C  0.62674420  0.26300749  0.84966673    -0.11500
C579        C  0.61090565  0.26319529  0.87100491    -0.10800
C580        C  0.60850026  0.24133391  0.88623849    -0.01700
C581        C  0.62179817  0.21914944  0.87935718    -0.11900
C582        C  0.63752836  0.21895845  0.85800806    -0.10300
H583        H  0.62844939  0.28013406  0.83831368     0.07600
H584        H  0.60085106  0.28055724  0.87573592     0.11300
H585        H  0.62038874  0.20197082  0.89066754     0.11000
H586        H  0.64805509  0.20180515  0.85354669     0.07600
C587        C  0.83989746  0.33921425  0.76530947    -0.11500
C588        C  0.82615146  0.33535379  0.74309873     0.05600
C589        C  0.83115145  0.35053872  0.72169412    -0.10300
C590        C  0.84947803  0.36940974  0.72258174    -0.11900
C591        C  0.86327771  0.37331590  0.74484129    -0.01700
C592        C  0.85829443  0.35793870  0.76617493    -0.10800
C593        C  0.80647326  0.31567500  0.74253458     0.05700
H594        H  0.82063393  0.34804309  0.70443171     0.07600
H595        H  0.85280554  0.38093060  0.70579940     0.11000
H596        H  0.86861836  0.36030043  0.78357056     0.11300
H597        H  0.83655717  0.32752939  0.78198544     0.07600
C598        C  0.80514546  0.29845780  0.72224394    -0.11500
C599        C  0.78717327  0.27916772  0.72250803    -0.10800
C600        C  0.77003005  0.27703139  0.74292247    -0.01700
C601        C  0.77108455  0.29469109  0.76288246    -0.11900
C602        C  0.78917490  0.31370223  0.76274330    -0.10300
H603        H  0.81838703  0.29957213  0.70648794     0.07600
H604        H  0.78674955  0.26592693  0.70681127     0.11300
H605        H  0.75816564  0.29362576  0.77890831     0.11000
H606        H  0.78963748  0.32693524  0.77845247     0.07600
C607        C  0.33224273  0.23749152  0.18247444    -0.11500
C608        C  0.33240598  0.25599317  0.16319692     0.05600
C609        C  0.31285998  0.27407092  0.16249270    -0.10300
C610        C  0.29333258  0.27340970  0.18050190    -0.11900
C611        C  0.29299810  0.25467845  0.19963216    -0.01700
C612        C  0.31279110  0.23684952  0.20049318    -0.10800
C613        C  0.35289601  0.25628017  0.14386764     0.05700
H614        H  0.31243044  0.28842872  0.14771103     0.07600
H615        H  0.27836560  0.28739164  0.17922586     0.11000
H616        H  0.31325481  0.22226423  0.21504445     0.11300
H617        H  0.34728492  0.22358280  0.18371283     0.07600
C618        C  0.36417797  0.27926318  0.13653601    -0.11500
C619        C  0.38401453  0.27938364  0.11889269    -0.10800
C620        C  0.39277645  0.25654722  0.10800097    -0.01700
C621        C  0.38116899  0.23361316  0.11499498    -0.11900
C622        C  0.36152797  0.23347257  0.13284379    -0.10300
H623        H  0.35800798  0.29709528  0.14486043     0.07600
H624        H  0.39251250  0.29737319  0.11381362     0.11300
H625        H  0.38751519  0.21569784  0.10698221     0.11000
H626        H  0.35296944  0.21551447  0.13793451     0.07600
C627        C  0.19621089  0.32885006  0.21830922    -0.11500
C628        C  0.17726720  0.32871048  0.23710184     0.05600
C629        C  0.17685411  0.30899484  0.25511457    -0.10300
C630        C  0.19499920  0.28965958  0.25428411    -0.11900
C631        C  0.21408174  0.28979686  0.23554313    -0.01700
C632        C  0.21449298  0.30966585  0.21759790    -0.10800
C633        C  0.15762861  0.34875733  0.23751104     0.05700
H634        H  0.16224150  0.30834412  0.26961312     0.07600
H635        H  0.19410631  0.27468057  0.26840363     0.11000
H636        H  0.22893310  0.31042898  0.20293906     0.11300
H637        H  0.19698959  0.34395374  0.20430193     0.07600
C638        C  0.15082758  0.36103457  0.26027744    -0.11500
C639        C  0.13189986  0.37963705  0.26058825    -0.10800
C640        C  0.11922317  0.38601981  0.23818111    -0.01700
C641        C  0.12622593  0.37377929  0.21540705    -0.11900
C642        C  0.14529201  0.35544953  0.21506812    -0.10300
H643        H  0.16024783  0.35629772  0.27779098     0.07600
H644        H  0.12694376  0.38870476  0.27842203     0.11300
H645        H  0.11690100  0.37825658  0.19777630     0.11000
H646        H  0.15006610  0.34610164  0.19732183     0.07600
C647        C  0.11007307  0.02817883  0.42555290    -0.11500
C648        C  0.13131186  0.01361939  0.43230517     0.05600
C649        C  0.12755727  0.99071239  0.44557947    -0.10300
C650        C  0.10319362  0.98297664  0.45238576    -0.11900
C651        C  0.08204719  0.99815803  0.44638299    -0.01700
C652        C  0.08582799  0.02057806  0.43251257    -0.10800
C653        C  0.15701303  0.02289159  0.42553356     0.05700
H654        H  0.14343141  0.97896149  0.45096793     0.07600
H655        H  0.10105939  0.96581905  0.46361610     0.11000
H656        H  0.07011241  0.03295611  0.42813273     0.11300
H657        H  0.11222572  0.04615215  0.41573809     0.07600
C658        C  0.16101909  0.03503609  0.40209210    -0.11500
C659        C  0.18395822  0.04632919  0.39621413    -0.10800
C660        C  0.20392409  0.04564597  0.41344182    -0.01700
C661        C  0.20050194  0.03247226  0.43654060    -0.11900
C662        C  0.17721727  0.02122158  0.44256931    -0.10300
H663        H  0.14619144  0.03610483  0.38823267     0.07600
H664        H  0.18590806  0.05582936  0.37803896     0.11300
H665        H  0.21551089  0.03150224  0.45021032     0.11000
H666        H  0.17475514  0.01205684  0.46086329     0.07600
C667        C  0.22662206  0.17684173  0.29113211    -0.11500
C668        C  0.24847135  0.16867548  0.30375836     0.05600
C669        C  0.27101257  0.18186114  0.29894386    -0.10300
C670        C  0.27180011  0.20211485  0.28175787    -0.11900
C671        C  0.24992805  0.21031648  0.26961507    -0.01700
C672        C  0.22728746  0.19770396  0.27457701    -0.10800
C673        C  0.24779574  0.14695672  0.32219359     0.05700
H674        H  0.28812381  0.17692264  0.30872018     0.07600
H675        H  0.28943076  0.21177081  0.27837012     0.11000
H676        H  0.21022568  0.20360268  0.26514790     0.11300
H677        H  0.20900274  0.16702457  0.29371722     0.07600
C678        C  0.22578210  0.14130191  0.33621583    -0.11500
C679        C  0.22563869  0.12185023  0.35440539    -0.10800
C680        C  0.24765706  0.10804101  0.35952593    -0.01700
C681        C  0.26948275  0.11318814  0.34527838    -0.11900
C682        C  0.26946263  0.13209175  0.32658935    -0.10300
H683        H  0.20876788  0.15238999  0.33386778     0.07600
H684        H  0.20856165  0.11832185  0.36519387     0.11300
H685        H  0.28663824  0.10252267  0.34856118     0.11000
H686        H  0.28655953  0.13500763  0.31570088     0.07600
C687        C  0.95425018  0.42435050  0.88668771    -0.11500
C688        C  0.96692232  0.42873657  0.86344889     0.05600
C689        C  0.99149269  0.43820700  0.86401371    -0.10300
C690        C  0.00260299  0.44438080  0.88708686    -0.11900
C691        C  0.98941146  0.44151212  0.91029803    -0.01700
C692        C  0.96529972  0.43078221  0.90985602    -0.10800
C693        C  0.95421992  0.42464641  0.83870476     0.05700
H694        H  0.00194100  0.44138576  0.84654500     0.07600
H695        H  0.02116765  0.45271344  0.88655529     0.11000
H696        H  0.95444642  0.42865141  0.92723421     0.11300
H697        H  0.93521571  0.41717405  0.88690764     0.07600
C698        C  0.93900806  0.40330726  0.83498215    -0.11500
C699        C  0.92644108  0.39996216  0.81205999    -0.10800
C700        C  0.92871982  0.41785383  0.79220992    -0.01700
C701        C  0.94418320  0.43906079  0.79579602    -0.11900
C702        C  0.95674187  0.44241978  0.81877601    -0.10300
H703        H  0.93690872  0.38912849  0.84977099     0.07600
H704        H  0.91486939  0.38324972  0.80993831     0.11300
H705        H  0.94626157  0.45327288  0.78103312     0.11000
H706        H  0.96803873  0.45929137  0.82115421     0.07600
C707        C  0.98762825  0.53445919  0.16976810    -0.11500
C708        C  0.99021079  0.55343957  0.15106882     0.05600
C709        C  0.98093034  0.57799540  0.15612575    -0.10300
C710        C  0.96867730  0.58327136  0.17906687    -0.11900
C711        C  0.96561421  0.56418008  0.19755754    -0.01700
C712        C  0.97558071  0.53981955  0.19287390    -0.10800
C713        C  0.00089392  0.54716262  0.12575639     0.05700
H714        H  0.98293144  0.59309561  0.14224804     0.07600
H715        H  0.96139160  0.60231855  0.18220760     0.11000
H716        H  0.97333514  0.52468852  0.20667823     0.11300
H717        H  0.99413634  0.51520476  0.16622043     0.07600
C718        C  0.02105468  0.52986795  0.12318504    -0.11500
C719        C  0.02862664  0.52122345  0.09920322    -0.10800
C720        C  0.01606054  0.52972329  0.07754599    -0.01700
C721        C  0.99728791  0.54853136  0.07996330    -0.11900
C722        C  0.98966281  0.55704279  0.10382839    -0.10300
H723        H  0.03032688  0.52229075  0.13977372     0.07600
H724        H  0.04301567  0.50661041  0.09779175     0.11300
H725        H  0.98729625  0.55546645  0.06349781     0.11000
H726        H  0.97393772  0.57018076  0.10511182     0.07600
C727        C  0.99584705  0.44374329  0.11338321    -0.11500
C728        C  0.01857174  0.43160927  0.11916209     0.05600
C729        C  0.03456386  0.42370320  0.09909212    -0.10300
C730        C  0.02880695  0.42944177  0.07384802    -0.11900
C731        C  0.00676617  0.44288046  0.06818508    -0.01700
C732        C  0.98987663  0.44904922  0.08818164    -0.10800
C733        C  0.02649933  0.42847692  0.14591864     0.05700
H734        H  0.05234287  0.41445064  0.10299535     0.07600
H735        H  0.04230866  0.42480201  0.05899012     0.11000
H736        H  0.97277175  0.45968551  0.08458643     0.11300
H737        H  0.98304215  0.44977493  0.12838166     0.07600
C738        C  0.02382811  0.44845874  0.16360086    -0.11500
C739        C  0.03470289  0.44654313  0.18769229    -0.10800
C740        C  0.04844998  0.42466193  0.19432671    -0.01700
C741        C  0.04957298  0.40418406  0.17718620    -0.11900
C742        C  0.03873181  0.40605672  0.15335361    -0.10300
H743        H  0.01452002  0.46605436  0.15833413     0.07600
H744        H  0.03348834  0.46258964  0.20050907     0.11300
H745        H  0.05958067  0.38681729  0.18187038     0.11000
H746        H  0.04055574  0.39016155  0.14040841     0.07600
C747        C  0.17768384  0.53753687  0.02959522    -0.11500
C748        C  0.15715510  0.55426915  0.03354084     0.05600
C749        C  0.16043743  0.57528907  0.04949789    -0.10300
C750        C  0.18335103  0.57938319  0.06137669    -0.11900
C751        C  0.20386257  0.56263983  0.05770879    -0.01700
C752        C  0.20078435  0.54167187  0.04153139    -0.10800
C753        C  0.13227761  0.54981825  0.02147190     0.05700
H754        H  0.14530440  0.58880882  0.05266394     0.07600
H755        H  0.18489954  0.59589096  0.07350900     0.11000
H756        H  0.21608230  0.52835744  0.03829307     0.11300
H757        H  0.17575591  0.52094414  0.01763971     0.07600
C758        C  0.13084234  0.54057272  0.99652772    -0.11500
C759        C  0.10754238  0.53532976  0.98571373    -0.10800
C760        C  0.08495533  0.53902360  0.99957616    -0.01700
C761        C  0.08633604  0.54918717  0.02417070    -0.11900
C762        C  0.10966616  0.55454677  0.03494936    -0.10300
H763        H  0.14777818  0.53709399  0.98542081     0.07600
H764        H  0.10733574  0.52724991  0.96682248     0.11300
H765        H  0.06946062  0.55180384  0.03560782     0.11000
H766        H  0.11000077  0.56141087  0.05430469     0.07600
C767        C  0.89032890  0.43759204  0.02355987    -0.11500
C768        C  0.86785424  0.44563152  0.01234966     0.05600
C769        C  0.86911210  0.45984443  0.98960824    -0.10300
C770        C  0.89242430  0.46676094  0.97904963    -0.11900
C771        C  0.91472751  0.45942617  0.99104603    -0.01700
C772        C  0.91335538  0.44408663  0.01289602    -0.10800
C773        C  0.84355362  0.44002849  0.02535748     0.05700
H774        H  0.85213414  0.46608552  0.98030033     0.07600
H775        H  0.89295900  0.47888558  0.96239154     0.11000
H776        H  0.93018551  0.43815944  0.02271089     0.11300
H777        H  0.89029381  0.42719864  0.04133133     0.07600
C778        C  0.84065312  0.41736404  0.03934633    -0.11500
C779        C  0.81897097  0.41300668  0.05375927    -0.10800
C780        C  0.79931982  0.43090777  0.05411943    -0.01700
C781        C  0.80176649  0.45325421  0.03954635    -0.11900
C782        C  0.82373343  0.45785631  0.02544869    -0.10300
H783        H  0.85520603  0.40287931  0.03925273     0.07600
H784        H  0.81753832  0.39543825  0.06444538     0.11300
H785        H  0.78691540  0.46744102  0.03942847     0.11000
H786        H  0.82543647  0.47568580  0.01525359     0.07600
C787        C  0.97857714  0.17773592  0.45260528    -0.11500
C788        C  0.98155057  0.15989248  0.43287072     0.05600
C789        C  0.97193673  0.16586563  0.40881652    -0.10300
C790        C  0.95853313  0.18842929  0.40495505    -0.11900
C791        C  0.95489186  0.20580776  0.42488770    -0.01700
C792        C  0.96558484  0.20058064  0.44856896    -0.10800
C793        C  0.99234391  0.13425772  0.43803809     0.05700
H794        H  0.97431932  0.15285846  0.39304897     0.07600
H795        H  0.95079126  0.19218817  0.38638549     0.11000
H796        H  0.96292944  0.21361904  0.46428323     0.11300
H797        H  0.98529655  0.17361363  0.47150232     0.07600
C798        C  0.01154790  0.13083023  0.45589196    -0.11500
C799        C  0.01837726  0.10640921  0.46397189    -0.10800
C800        C  0.00606754  0.08507680  0.45434944    -0.01700
C801        C  0.98854721  0.08835592  0.43489378    -0.11900
C802        C  0.98167600  0.11266258  0.42690261    -0.10300
H803        H  0.02050811  0.14704288  0.46445770     0.07600
H804        H  0.03183555  0.10438245  0.47911575     0.11300
H805        H  0.97879267  0.07218255  0.42712389     0.11000
H806        H  0.96668832  0.11445003  0.41330469     0.07600
C807        C  0.68861317  0.17263804  0.27279301    -0.11500
C808        C  0.67073768  0.17243213  0.25343424     0.05600
C809        C  0.67246814  0.19051853  0.23383081    -0.10300
C810        C  0.69152196  0.20872620  0.23379976    -0.11900
C811        C  0.70941163  0.20903997  0.25325667    -0.01700
C812        C  0.70779656  0.19063770  0.27264697    -0.10800
C813        C  0.65024612  0.15349457  0.25393103     0.05700
H814        H  0.65879131  0.19084207  0.21877308     0.07600
H815        H  0.69214367  0.22260569  0.21858590     0.11000
H816        H  0.72123873  0.19022755  0.28790608     0.11300
H817        H  0.68782659  0.15872230  0.28797713     0.07600
C818        C  0.64467750  0.13931301  0.23218406    -0.11500
C819        C  0.62573917  0.12099624  0.23295932    -0.10800
C820        C  0.61177582  0.11670656  0.25543193    -0.01700
C821        C  0.61721598  0.13119478  0.27707167    -0.11900
C822        C  0.63631159  0.14928060  0.27634669    -0.10300
H823        H  0.65527878  0.14210668  0.21472098     0.07600
H824        H  0.62206063  0.11021064  0.21592737     0.11300
H825        H  0.60683199  0.12848863  0.29467269     0.11000
H826        H  0.64009259  0.16016028  0.29330265     0.07600
C827        C  0.73095278  0.30679231  0.17950437    -0.11500
C828        C  0.75100847  0.32403434  0.17852935     0.05600
C829        C  0.76983443  0.32213638  0.19689390    -0.10300
C830        C  0.76863530  0.30343869  0.21580383    -0.11900
C831        C  0.74864183  0.28608215  0.21672713    -0.01700
C832        C  0.72980494  0.28800728  0.19833465    -0.10800
C833        C  0.75212652  0.34405247  0.15856372     0.05700
H834        H  0.78534467  0.33534176  0.19684371     0.07600
H835        H  0.78348418  0.30255318  0.22964456     0.11000
H836        H  0.71415580  0.27497366  0.19842432     0.11300
H837        H  0.71628666  0.30760150  0.16545827     0.07600
C838        C  0.77494804  0.35006787  0.14626711    -0.11500
C839        C  0.77583167  0.36887532  0.12739805    -0.10800
C840        C  0.75392062  0.38215271  0.12052386    -0.01700
C841        C  0.73115166  0.37614868  0.13293818    -0.11900
C842        C  0.73027027  0.35733272  0.15167258    -0.10300
H843        H  0.79206900  0.33998042  0.15100478     0.07600
H844        H  0.79367469  0.37301031  0.11824152     0.11300
H845        H  0.71388902  0.38599515  0.12822503     0.11000
H846        H  0.71247963  0.35340349  0.16103042     0.07600
C847        C  0.81087391  0.26922036  0.32194798    -0.11500
C848        C  0.82233359  0.24631337  0.32982607     0.05600
C849        C  0.81353032  0.22332376  0.31956756    -0.10300
C850        C  0.79421871  0.22336902  0.30175708    -0.11900
C851        C  0.78377086  0.24637261  0.29323873    -0.01700
C852        C  0.79217858  0.26926969  0.30357944    -0.10800
C853        C  0.84367394  0.24657730  0.34809140     0.05700
H854        H  0.82194178  0.20528289  0.32465970     0.07600
H855        H  0.78808366  0.20544160  0.29393118     0.11000
H856        H  0.78411049  0.28723624  0.29759744     0.11300
H857        H  0.81626562  0.28729696  0.32992036     0.07600
C858        C  0.85979413  0.26770520  0.34924686    -0.11500
C859        C  0.87944967  0.26832056  0.36654044    -0.10800
C860        C  0.88410234  0.24753083  0.38250934    -0.01700
C861        C  0.86863206  0.22611447  0.38111251    -0.11900
C862        C  0.84839605  0.22579350  0.36438628    -0.10300
H863        H  0.85755513  0.28375692  0.33660176     0.07600
H864        H  0.89138403  0.28492332  0.36709515     0.11300
H865        H  0.87179471  0.20992847  0.39344237     0.11000
H866        H  0.83629147  0.20934385  0.36459634     0.07600
C867        C  0.01904306  0.59400667  0.82662842    -0.11500
C868        C  0.01173849  0.56869196  0.83049134     0.05600
C869        C  0.01443210  0.55126786  0.81037082    -0.10300
C870        C  0.02604098  0.55860829  0.78752174    -0.11900
C871        C  0.03531850  0.58337638  0.78465012    -0.01700
C872        C  0.03084535  0.60122400  0.80402010    -0.10800
C873        C  0.00496783  0.55976052  0.85636199     0.05700
H874        H  0.00916474  0.53155580  0.81288862     0.07600
H875        H  0.02927679  0.54450935  0.77286291     0.11000
H876        H  0.03741684  0.62059578  0.80210418     0.11300
H877        H  0.01673867  0.60795309  0.84159439     0.07600
C878        C  0.01915335  0.56796029  0.87706763    -0.11500
C879        C  0.01620754  0.55658543  0.90077270    -0.10800
C880        C  0.99909481  0.53665666  0.90428805    -0.01700
C881        C  0.98347367  0.52976457  0.88420988    -0.11900
C882        C  0.98649009  0.54115682  0.86033211    -0.10300
H883        H  0.03376585  0.58201643  0.87460783     0.07600
H884        H  0.02842510  0.56237509  0.91596577     0.11300
H885        H  0.97017092  0.51440155  0.88645265     0.11000
H886        H  0.97514323  0.53470257  0.84474312     0.07600
C887        C  0.18757343  0.96771662  0.53434253    -0.11500
C888        C  0.16861987  0.97416141  0.55212691     0.05600
C889        C  0.17209416  0.96785069  0.57778025    -0.10300
C890        C  0.19308350  0.95400604  0.58529329    -0.11900
C891        C  0.21150059  0.94650341  0.56746924    -0.01700
C892        C  0.20896544  0.95410873  0.54200342    -0.10800
C893        C  0.14420845  0.98511958  0.54404182     0.05700
H894        H  0.15821936  0.97312539  0.59207935     0.07600
H895        H  0.19474242  0.94895274  0.60516075     0.11000
H896        H  0.22296079  0.94866366  0.52789276     0.11300
H897        H  0.18536236  0.97218264  0.51440385     0.07600
C898        C  0.14255426  0.00356891  0.52466908    -0.11500
C899        C  0.11901002  0.01225549  0.51645910    -0.10800
C900        C  0.09693599  0.00244114  0.52745698    -0.01700
C901        C  0.09873060  0.98473355  0.54732380    -0.11900
C902        C  0.12197930  0.97608031  0.55538455    -0.10300
H903        H  0.15938855  0.01091993  0.51561845     0.07600
H904        H  0.11805127  0.02552955  0.50073279     0.11300
H905        H  0.08201139  0.97664837  0.55598957     0.11000
H906        H  0.12244014  0.96145464  0.56988542     0.07600
C907        C  0.16620091  0.70844609  0.74597025    -0.11500
C908        C  0.16325484  0.68916398  0.76420208     0.05600
C909        C  0.17881065  0.68894834  0.78556451    -0.10300
C910        C  0.19735560  0.70743365  0.78832176    -0.11900
C911        C  0.20048463  0.72654695  0.76983974    -0.01700
C912        C  0.18454401  0.72691273  0.74876088    -0.10800
C913        C  0.14410631  0.66930696  0.76052901     0.05700
H914        H  0.17697618  0.67418155  0.79984447     0.07600
H915        H  0.20930048  0.70665372  0.80478861     0.11000
H916        H  0.18634405  0.74135523  0.73415373     0.11300
H917        H  0.15419745  0.70932343  0.72954404     0.07600
C918        C  0.12852008  0.66146370  0.78074158    -0.11500
C919        C  0.10971987  0.64355260  0.77674875    -0.10800
C920        C  0.10627429  0.63306218  0.75249582    -0.01700
C921        C  0.12218570  0.64065597  0.73242799    -0.11900
C922        C  0.14086857  0.65857305  0.73641082    -0.10300
H923        H  0.13051528  0.66958691  0.79947186     0.07600
H924        H  0.09783854  0.63802468  0.79265323     0.11300
H925        H  0.12017094  0.63287104  0.71355820     0.11000
H926        H  0.15288710  0.66400610  0.72057336     0.07600
C927        C  0.26529908  0.82623734  0.70441704    -0.11500
C928        C  0.24302700  0.83738608  0.69513938     0.05600
C929        C  0.22005612  0.83094057  0.70693234    -0.10300
C930        C  0.21929604  0.81328637  0.72676958    -0.11900
C931        C  0.24152642  0.80226622  0.73582543    -0.01700
C932        C  0.26456105  0.80917022  0.72479831    -0.10800
C933        C  0.24375991  0.85515336  0.67299157     0.05700
H934        H  0.20255360  0.83948940  0.70091768     0.07600
H935        H  0.20130307  0.80827456  0.73512115     0.11000
H936        H  0.28190793  0.80055093  0.73124549     0.11300
H937        H  0.28331795  0.83006044  0.69556357     0.07600
C938        C  0.26501043  0.87029515  0.66825880    -0.11500
C939        C  0.26648640  0.88563222  0.64666059    -0.10800
C940        C  0.24644250  0.88687360  0.62970933    -0.01700
C941        C  0.22474004  0.87275745  0.63475294    -0.11900
C942        C  0.22353612  0.85673688  0.65597485    -0.10300
H943        H  0.28064877  0.87035369  0.68118177     0.07600
H944        H  0.28331281  0.89663402  0.64321593     0.11300
H945        H  0.20915754  0.87330550  0.62171609     0.11000
H946        H  0.20703692  0.84509548  0.65852303     0.07600
C947        C  0.31007036  0.77857327  0.83521660    -0.11500
C948        C  0.31282553  0.75617697  0.84954854     0.05600
C949        C  0.29715577  0.73546758  0.84455831    -0.10300
C950        C  0.27896945  0.73717301  0.82569473    -0.11900
C951        C  0.27631177  0.75952455  0.81120538    -0.01700
C952        C  0.29211334  0.78018347  0.81615336    -0.10800
C953        C  0.33211906  0.75445739  0.86952946     0.05700
H954        H  0.29878262  0.71805545  0.85547481     0.07600
H955        H  0.26711868  0.72090549  0.82235208     0.11000
H956        H  0.29051172  0.79770266  0.80541144     0.11300
H957        H  0.32207344  0.79473720  0.83852961     0.07600
C958        C  0.34786250  0.73297768  0.87129332    -0.11500
C959        C  0.36670784  0.73183389  0.88953702    -0.10800
C960        C  0.37006958  0.75208523  0.90650797    -0.01700
C961        C  0.35390630  0.77333951  0.90502022    -0.11900
C962        C  0.33522268  0.77453742  0.88668176    -0.10300
H963        H  0.34595914  0.71731418  0.85816518     0.07600
H964        H  0.37879452  0.71519261  0.89014647     0.11300
H965        H  0.35582635  0.78925535  0.91783799     0.11000
H966        H  0.32312335  0.79117425  0.88593225     0.07600
C967        C  0.55376759  0.82184675  0.04633866    -0.11500
C968        C  0.57027494  0.84249828  0.04906873     0.05600
C969        C  0.59224226  0.83881489  0.06306266    -0.10300
C970        C  0.59724204  0.81544978  0.07470375    -0.11900
C971        C  0.58041354  0.79500420  0.07274125    -0.01700
C972        C  0.55879262  0.79833390  0.05803715    -0.10800
C973        C  0.56430148  0.86800489  0.03808584     0.05700
H974        H  0.60558011  0.85409844  0.06511797     0.07600
H975        H  0.61430714  0.81355044  0.08553373     0.11000
H976        H  0.54543723  0.78304234  0.05615027     0.11300
H977        H  0.53656000  0.82410494  0.03580491     0.07600
C978        C  0.55385656  0.87013469  0.01384895    -0.11500
C979        C  0.54668573  0.89388030  0.00423490    -0.10800
C980        C  0.54950231  0.91623317  0.01866280    -0.01700
C981        C  0.56084543  0.91424814  0.04254425    -0.11900
C982        C  0.56828019  0.89041852  0.05207737    -0.10300
H983        H  0.55089646  0.85335643  0.00241816     0.07600
H984        H  0.53789806  0.89452247  0.98580595     0.11300
H985        H  0.56295548  0.93091680  0.05433530     0.11000
H986        H  0.57613397  0.88942372  0.07092395     0.07600
C987        C  0.44946534  0.87260745  0.02370364    -0.11500
C988        C  0.43298781  0.86797705  0.00363946     0.05600
C989        C  0.42567959  0.88827913  0.98791967    -0.10300
C990        C  0.43637585  0.91216292  0.99072945    -0.11900
C991        C  0.45463571  0.91613820  0.00927552    -0.01700
C992        C  0.46012966  0.89658252  0.02657752    -0.10800
C993        C  0.42616615  0.84170655  0.99671628     0.05700
H994        H  0.41315757  0.88527163  0.97216262     0.07600
H995        H  0.43163903  0.92698194  0.97726029     0.11000
H996        H  0.47409168  0.89919489  0.04112161     0.11300
H997        H  0.45509903  0.85736142  0.03629339     0.07600
C998        C  0.44465810  0.82248351  0.99621059    -0.11500
C999        C  0.43981255  0.79902830  0.98499515    -0.10800
C1000       C  0.41642696  0.79447440  0.97390397    -0.01700
C1001       C  0.39742337  0.81308996  0.97596306    -0.11900
C1002       C  0.40222261  0.83645807  0.98730479    -0.10300
H1003       H  0.46342166  0.82610504  0.00302089     0.07600
H1004       H  0.45482113  0.78508703  0.98372470     0.11300
H1005       H  0.37905948  0.80999378  0.96792546     0.11000
H1006       H  0.38754528  0.85080092  0.98778361     0.07600
C1007       C  0.55803345  0.02177779  0.12211041    -0.11500
C1008       C  0.54817923  0.01048774  0.14424975     0.05600
C1009       C  0.53105389  0.99033922  0.14187611    -0.10300
C1010       C  0.52310095  0.98255205  0.11786190    -0.11900
C1011       C  0.53221189  0.99479857  0.09593652    -0.01700
C1012       C  0.55028336  0.01393043  0.09832063    -0.10800
C1013       C  0.55448262  0.02128773  0.16940941     0.05700
H1014       H  0.52332491  0.98104231  0.15857008     0.07600
H1015       H  0.50896756  0.96792703  0.11652796     0.11000
H1016       H  0.55765843  0.02377141  0.08175221     0.11300
H1017       H  0.57081855  0.03764182  0.12307472     0.07600
C1018       C  0.57841122  0.03153766  0.17357321    -0.11500
C1019       C  0.58332365  0.04504257  0.19569949    -0.10800
C1020       C  0.56459230  0.04816852  0.21445439    -0.01700
C1021       C  0.54109183  0.03677692  0.21099992    -0.11900
C1022       C  0.53601088  0.02363067  0.18861846    -0.10300
H1023       H  0.59328541  0.02957115  0.15946907     0.07600
H1024       H  0.60173587  0.05326208  0.19799998     0.11300
H1025       H  0.52626047  0.03891617  0.22513522     0.11000
H1026       H  0.51728775  0.01632123  0.18593622     0.07600
C1027       C  0.43292046  0.97457126  0.10893588    -0.11500
C1028       C  0.44119116  0.98887920  0.12980480     0.05600
C1029       C  0.45387347  0.01177786  0.12493015    -0.10300
C1030       C  0.45936882  0.01926974  0.09988074    -0.11900
C1031       C  0.45255199  0.00386032  0.07916890    -0.01700
C1032       C  0.43848686  0.98198553  0.08401340    -0.10800
C1033       C  0.43773570  0.97873685  0.15618225     0.05700
H1034       H  0.46026030  0.02347176  0.14044259     0.07600
H1035       H  0.47061059  0.03612154  0.09687215     0.11000
H1036       H  0.43334355  0.96954826  0.06858886     0.11300
H1037       H  0.42348757  0.95662653  0.11176942     0.07600
C1038       C  0.41634941  0.96437625  0.16227068    -0.11500
C1039       C  0.41441214  0.95143522  0.18533027    -0.10800
C1040       C  0.43354691  0.95279718  0.20342276    -0.01700
C1041       C  0.45432573  0.96844183  0.19820043    -0.11900
C1042       C  0.45646674  0.98120779  0.17473868    -0.10300
H1043       H  0.40116993  0.96264069  0.14892579     0.07600
H1044       H  0.39787695  0.94000064  0.18879925     0.11300
H1045       H  0.46935832  0.96998045  0.21175180     0.11000
H1046       H  0.47329939  0.99200796  0.17072462     0.07600
C1047       C  0.42986117  0.17101656  0.02943097    -0.11500
C1048       C  0.45350436  0.16592056  0.01835384     0.05600
C1049       C  0.47194456  0.18496695  0.01889759    -0.10300
C1050       C  0.46708596  0.20819410  0.03110031    -0.11900
C1051       C  0.44379411  0.21269655  0.04319049    -0.01700
C1052       C  0.42512272  0.19398260  0.04177587    -0.10800
C1053       C  0.45935007  0.14016491  0.00815201     0.05700
H1054       H  0.49045976  0.18156313  0.01082119     0.07600
H1055       H  0.48186643  0.22220082  0.03187655     0.11000
H1056       H  0.40682755  0.19687324  0.05056015     0.11300
H1057       H  0.41501032  0.15706854  0.02889026     0.07600
C1058       C  0.44983110  0.11863449  0.02070537    -0.11500
C1059       C  0.45691165  0.09435409  0.01296994    -0.10800
C1060       C  0.47418808  0.09082871  0.99280054    -0.01700
C1061       C  0.48273143  0.11213990  0.97926880    -0.11900
C1062       C  0.47535522  0.13665827  0.98689509    -0.10300
H1063       H  0.43783711  0.12046092  0.03738237     0.07600
H1064       H  0.44988810  0.07833367  0.02385425     0.11300
H1065       H  0.49616489  0.10996087  0.96379110     0.11000
H1066       H  0.48270890  0.15286977  0.97659856     0.07600
C1067       C  0.57848232  0.10302605  0.97529381    -0.11500
C1068       C  0.57278865  0.12252333  0.99280083     0.05600
C1069       C  0.56231680  0.11609498  0.01645354    -0.10300
C1070       C  0.55599031  0.09092065  0.02176726    -0.11900
C1071       C  0.55937112  0.07177650  0.00322608    -0.01700
C1072       C  0.57172952  0.07788410  0.98042067    -0.10800
C1073       C  0.57587194  0.14946951  0.98523075     0.05700
H1074       H  0.55806935  0.13067961  0.03041021     0.07600
H1075       H  0.54642740  0.08692867  0.03959620     0.11000
H1076       H  0.57432379  0.06369321  0.96571961     0.11300
H1077       H  0.58645333  0.10747024  0.95681715     0.07600
C1078       C  0.59708558  0.15663079  0.97104289    -0.11500
C1079       C  0.59823580  0.18051528  0.95975675    -0.10800
C1080       C  0.57825191  0.19794152  0.96251800    -0.01700
C1081       C  0.55777641  0.19165677  0.97833579    -0.11900
C1082       C  0.55654070  0.16748461  0.98958938    -0.10300
H1083       H  0.61244975  0.14333420  0.96784829     0.07600
H1084       H  0.61450537  0.18501240  0.94809548     0.11300
H1085       H  0.54213720  0.20478119  0.98078894     0.11000
H1086       H  0.53986802  0.16238827  0.00037076     0.07600
C1087       C  0.00977303  0.12439035  0.55007218    -0.11500
C1088       C  0.03497249  0.12858102  0.55614441     0.05600
C1089       C  0.05111161  0.10734166  0.55855138    -0.10300
C1090       C  0.04262656  0.08267901  0.55337574    -0.11900
C1091       C  0.01771830  0.07867939  0.54590124    -0.01700
C1092       C  0.00123808  0.09980990  0.54520024    -0.10800
C1093       C  0.04462891  0.15500125  0.55898225     0.05700
H1094       H  0.07070662  0.10992431  0.56310667     0.07600
H1095       H  0.05594837  0.06702696  0.55369632     0.11000
H1096       H  0.98192157  0.09759027  0.53943172     0.11300
H1097       H  0.99675430  0.14021858  0.54851943     0.07600
C1098       C  0.03767120  0.17456014  0.54200305    -0.11500
C1099       C  0.04814110  0.19895915  0.54380923    -0.10800
C1100       C  0.06575477  0.20431467  0.56268347    -0.01700
C1101       C  0.07194897  0.18490122  0.58010985    -0.11900
C1102       C  0.06161353  0.16065435  0.57824592    -0.10300
H1103       H  0.02472958  0.17076354  0.52679010     0.07600
H1104       H  0.04294816  0.21336215  0.53007884     0.11300
H1105       H  0.08519909  0.18824459  0.59515202     0.11000
H1106       H  0.06703052  0.14623569  0.59187532     0.07600
C1107       C  0.45592033  0.00653701  0.87548923    -0.11500
C1108       C  0.45143420  0.03265113  0.87185790     0.05600
C1109       C  0.44980120  0.04839925  0.89347467    -0.10300
C1110       C  0.45361874  0.03849370  0.91790656    -0.11900
C1111       C  0.45918230  0.01256758  0.92139405    -0.01700
C1112       C  0.45969353  0.99664083  0.89987437    -0.10800
C1113       C  0.44877826  0.04351191  0.84570795     0.05700
H1114       H  0.44666047  0.06866121  0.89146118     0.07600
H1115       H  0.45361959  0.05142500  0.93388432     0.11000
H1116       H  0.46417673  0.97660053  0.90171509     0.11300
H1117       H  0.45685335  0.99373647  0.85942249     0.07600
C1118       C  0.46354593  0.03454907  0.82509059    -0.11500
C1119       C  0.46115260  0.04524881  0.80071515    -0.10800
C1120       C  0.44391475  0.06513648  0.79637929    -0.01700
C1121       C  0.42915061  0.07391188  0.81702866    -0.11900
C1122       C  0.43152779  0.06327912  0.84122278    -0.10300
H1123       H  0.47729420  0.01955932  0.82787596     0.07600
H1124       H  0.47286292  0.03803117  0.78534413     0.11300
H1125       H  0.41559621  0.08914805  0.81461268     0.11000
H1126       H  0.41955770  0.07043259  0.85641679     0.07600
C1127       C  0.12434290  0.42409889  0.96201821    -0.11500
C1128       C  0.14426602  0.43327225  0.97667069     0.05600
C1129       C  0.13847566  0.44934241  0.99731638    -0.10300
C1130       C  0.11368445  0.45740883  0.00205226    -0.11900
C1131       C  0.09412326  0.44961624  0.98620924    -0.01700
C1132       C  0.09964507  0.43213405  0.96674836    -0.10800
C1133       C  0.17086394  0.42796796  0.96871577     0.05700
H1134       H  0.15322611  0.45641707  0.00931832     0.07600
H1135       H  0.11010092  0.47090622  0.01718218     0.11000
H1136       H  0.08503774  0.42569585  0.95419984     0.11300
H1137       H  0.12791404  0.41194626  0.94580529     0.07600
C1138       C  0.17743954  0.40478551  0.95703921    -0.11500
C1139       C  0.20102460  0.40144002  0.94552441    -0.10800
C1140       C  0.21889531  0.42098471  0.94576617    -0.01700
C1141       C  0.21315640  0.44344868  0.95904746    -0.11900
C1142       C  0.18933006  0.44698588  0.97026124    -0.10300
H1143       H  0.16405458  0.38942356  0.95607100     0.07600
H1144       H  0.20505355  0.38370933  0.93581891     0.11300
H1145       H  0.22653843  0.45885370  0.95951179     0.11000
H1146       H  0.18497334  0.46518461  0.97886181     0.07600
C1147       C  0.16052763  0.23452860  0.63022083    -0.11500
C1148       C  0.17291832  0.25762235  0.63414871     0.05600
C1149       C  0.16535591  0.27924777  0.62040611    -0.10300
C1150       C  0.14573161  0.27777236  0.60308439    -0.11900
C1151       C  0.13317344  0.25467790  0.59931777    -0.01700
C1152       C  0.14086159  0.23306971  0.61305681    -0.10800
C1153       C  0.19338110  0.25910054  0.65286675     0.05700
H1154       H  0.17475002  0.29723829  0.62292846     0.07600
H1155       H  0.14030250  0.29477202  0.59279738     0.11000
H1156       H  0.13162706  0.21497714  0.61067045     0.11300
H1157       H  0.16575613  0.21764024  0.64080068     0.07600
C1158       C  0.19439571  0.27948818  0.66997136    -0.11500
C1159       C  0.21307105  0.28030843  0.68833321    -0.10800
C1160       C  0.23122955  0.26080276  0.68988126    -0.01700
C1161       C  0.23039586  0.24060278  0.67248571    -0.11900
C1162       C  0.21163909  0.23973420  0.65422197    -0.10300
H1163       H  0.18038709  0.29453184  0.66951614     0.07600
H1164       H  0.21314398  0.29615735  0.70140749     0.11300
H1165       H  0.24410548  0.22529245  0.67308338     0.11000
H1166       H  0.21144465  0.22393802  0.64108248     0.07600
C1167       C  0.36694190  0.15372163  0.76063582    -0.11500
C1168       C  0.36283399  0.16513310  0.73687772     0.05600
C1169       C  0.37754943  0.15745482  0.71593058    -0.10300
C1170       C  0.39620655  0.13888199  0.71874798    -0.11900
C1171       C  0.40041559  0.12750395  0.74256095    -0.01700
C1172       C  0.38550272  0.13508513  0.76345021    -0.10800
C1173       C  0.34359965  0.18538665  0.73420622     0.05700
H1174       H  0.37492219  0.16614521  0.69747131     0.07600
H1175       H  0.40733741  0.13348753  0.70224057     0.11000
H1176       H  0.38815331  0.12665785  0.78202087     0.11300
H1177       H  0.35564134  0.15910211  0.77703741     0.07600
C1178       C  0.32715598  0.18568342  0.71353396    -0.11500
C1179       C  0.30869113  0.20464226  0.71154698    -0.10800
C1180       C  0.30649411  0.22371861  0.73012086    -0.01700
C1181       C  0.32326710  0.22352567  0.75054417    -0.11900
C1182       C  0.34154605  0.20457431  0.75257117    -0.10300
H1183       H  0.32828881  0.17098953  0.69918297     0.07600
H1184       H  0.29608639  0.20425943  0.69557910     0.11300
H1185       H  0.32223150  0.23794379  0.76517199     0.11000
H1186       H  0.35423726  0.20502450  0.76847404     0.07600
C1187       C  0.24455146  0.33326755  0.78959998    -0.11500
C1188       C  0.26460473  0.33520578  0.80654329     0.05600
C1189       C  0.28578767  0.31948460  0.80309948    -0.10300
C1190       C  0.28679509  0.30194080  0.78333323    -0.11900
C1191       C  0.26666721  0.29974921  0.76648229    -0.01700
C1192       C  0.24560789  0.31576360  0.76966215    -0.10800
C1193       C  0.26345342  0.35318722  0.82809162     0.05700
H1194       H  0.30138619  0.32036634  0.81605129     0.07600
H1195       H  0.30333582  0.28994053  0.78142179     0.11000
H1196       H  0.22980404  0.31452851  0.75700660     0.11300
H1197       H  0.22810195  0.34536305  0.79173088     0.07600
C1198       C  0.28465637  0.36743079  0.83436191    -0.11500
C1199       C  0.28419140  0.38332135  0.85549975    -0.10800
C1200       C  0.26248574  0.38530584  0.87091603    -0.01700
C1201       C  0.24108428  0.37141244  0.86435718    -0.11900
C1202       C  0.24155419  0.35551921  0.84311006    -0.10300
H1203       H  0.30167776  0.36624351  0.82289468     0.07600
H1204       H  0.30097304  0.39386120  0.85984347     0.11300
H1205       H  0.22406315  0.37253166  0.87581697     0.11000
H1206       H  0.22503346  0.34454553  0.83881276     0.07600
C1207       C  0.84273304  0.57590707  0.95741115    -0.11500
C1208       C  0.84917846  0.55227394  0.96803504     0.05600
C1209       C  0.83081325  0.53303506  0.96872420    -0.10300
C1210       C  0.80704825  0.53712858  0.95783414    -0.11900
C1211       C  0.80133757  0.56047161  0.94596533    -0.01700
C1212       C  0.81934877  0.57986586  0.94642515    -0.10800
C1213       C  0.87552529  0.54774978  0.97662195     0.05700
H1214       H  0.83514140  0.51454573  0.97675292     0.07600
H1215       H  0.79357483  0.52180977  0.95785889     0.11000
H1216       H  0.81549742  0.59826596  0.93796333     0.11300
H1217       H  0.85602174  0.59138541  0.95719224     0.07600
C1218       C  0.89582211  0.55770488  0.96237041    -0.11500
C1219       C  0.92072221  0.55292247  0.96923539    -0.10800
C1220       C  0.92610752  0.53828861  0.99072949    -0.01700
C1221       C  0.90584378  0.52901068  0.00563145    -0.11900
C1222       C  0.88085350  0.53347178  0.99852868    -0.10300
H1223       H  0.89250245  0.56840067  0.94512873     0.07600
H1224       H  0.93579263  0.55978930  0.95710462     0.11300
H1225       H  0.90929079  0.51699754  0.02199843     0.11000
H1226       H  0.86577133  0.52554311  0.00998155     0.07600
C1227       C  0.97944690  0.82160221  0.53637792    -0.11500
C1228       C  0.97996221  0.83899340  0.55673884     0.05600
C1229       C  0.97008984  0.83135996  0.58036401    -0.10300
C1230       C  0.95874714  0.80767327  0.58331711    -0.11900
C1231       C  0.95707912  0.79071703  0.56278226    -0.01700
C1232       C  0.96816035  0.79765437  0.53940165    -0.10800
C1233       C  0.98912561  0.86555546  0.55314590     0.05700
H1234       H  0.97071374  0.84395846  0.59658540     0.07600
H1235       H  0.95082585  0.80283726  0.60172603     0.11000
H1236       H  0.96717929  0.78505747  0.52319963     0.11300
H1237       H  0.98676816  0.82690894  0.51785141     0.07600
C1238       C  0.01017773  0.87073340  0.53771533    -0.11500
C1239       C  0.01733023  0.89586539  0.53287691    -0.10800
C1240       C  0.00333402  0.91650877  0.54293830    -0.01700
C1241       C  0.98286909  0.91135631  0.55906367    -0.11900
C1242       C  0.97600263  0.88617891  0.56432218    -0.10300
H1243       H  0.02081756  0.85538004  0.52894933     0.07600
H1244       H  0.03291190  0.89910764  0.51985741     0.11300
H1245       H  0.97150446  0.92677768  0.56668847     0.11000
H1246       H  0.95951704  0.88291590  0.57608431     0.07600
C1247       C  0.77682467  0.67825767  0.81312964    -0.11500
C1248       C  0.75477649  0.66524724  0.82043175     0.05600
C1249       C  0.73249076  0.67093441  0.80724359    -0.10300
C1250       C  0.73223786  0.68922581  0.78783479    -0.11900
C1251       C  0.75437885  0.70167597  0.78047743    -0.01700
C1252       C  0.77669994  0.69586276  0.79313743    -0.10800
C1253       C  0.75510177  0.64585217  0.84147474     0.05700
H1254       H  0.71519747  0.66109206  0.81155885     0.07600
H1255       H  0.71479982  0.69328418  0.77818738     0.11000
H1256       H  0.79395789  0.70548661  0.78801373     0.11300
H1257       H  0.79426890  0.67525051  0.82302970     0.07600
C1258       C  0.77729545  0.63231986  0.84731099    -0.11500
C1259       C  0.77766401  0.61429166  0.86691662    -0.10800
C1260       C  0.75572312  0.60864579  0.88077008    -0.01700
C1261       C  0.73349117  0.62187880  0.87502765    -0.11900
C1262       C  0.73325748  0.64047416  0.85592074    -0.10300
H1263       H  0.79442036  0.63513370  0.83646144     0.07600
H1264       H  0.79503249  0.60420473  0.87075075     0.11300
H1265       H  0.71632125  0.61810708  0.88558079     0.11000
H1266       H  0.71589303  0.65074567  0.85276610     0.07600
C1267       C  0.83063507  0.72082820  0.68415540    -0.11500
C1268       C  0.83353785  0.74194785  0.66794568     0.05600
C1269       C  0.81653309  0.76241893  0.67045271    -0.10300
C1270       C  0.79706771  0.76174412  0.68857045    -0.11900
C1271       C  0.79415795  0.74064364  0.70479348    -0.01700
C1272       C  0.81124871  0.72021345  0.70239302    -0.10800
C1273       C  0.85391050  0.74251401  0.64822540     0.05700
H1274       H  0.81797941  0.77882557  0.65806743     0.07600
H1275       H  0.78429887  0.77783209  0.68986180     0.11000
H1276       H  0.80958454  0.70363016  0.71451623     0.11300
H1277       H  0.84353606  0.70484346  0.68293219     0.07600
C1278       C  0.86689380  0.76514050  0.64280814    -0.11500
C1279       C  0.88541306  0.76587757  0.62369790    -0.10800
C1280       C  0.89134929  0.74402090  0.60941891    -0.01700
C1281       C  0.87862119  0.72130813  0.61507861    -0.11900
C1282       C  0.86019042  0.72055206  0.63426103    -0.10300
H1283       H  0.86281132  0.78231029  0.65344732     0.07600
H1284       H  0.89488183  0.78367801  0.61995398     0.11300
H1285       H  0.88275615  0.70407273  0.60456115     0.11000
H1286       H  0.85042346  0.70287213  0.63773838     0.07600
C1287       C  0.54561436  0.96519372  0.81753159    -0.11500
C1288       C  0.56447059  0.96546136  0.83610872     0.05600
C1289       C  0.58784336  0.95422597  0.83001592    -0.10300
C1290       C  0.59185075  0.94197732  0.80671494    -0.11900
C1291       C  0.57270457  0.94077126  0.78857238    -0.01700
C1292       C  0.54972613  0.95309266  0.79402734    -0.10800
C1293       C  0.55923732  0.97553928  0.86231787     0.05700
H1294       H  0.60305153  0.95452410  0.84347868     0.07600
H1295       H  0.60994466  0.93310342  0.80307369     0.11000
H1296       H  0.53455407  0.95254842  0.78052712     0.11300
H1297       H  0.52729366  0.97338602  0.82152777     0.07600
C1298       C  0.54326981  0.99667339  0.86648935    -0.11500
C1299       C  0.53625550  0.00406211  0.89125374    -0.10800
C1300       C  0.54490781  0.99037609  0.91245097    -0.01700
C1301       C  0.56192814  0.97017085  0.90831697    -0.11900
C1302       C  0.56900906  0.96288585  0.88367799    -0.10300
H1303       H  0.53563568  0.00713674  0.85057008     0.07600
H1304       H  0.52290717  0.01951627  0.89371564     0.11300
H1305       H  0.56888344  0.95910656  0.92417690     0.11000
H1306       H  0.58108269  0.94638655  0.88142262     0.07600
C1307       C  0.64341729  0.84066739  0.71965210    -0.11500
C1308       C  0.65792840  0.83568325  0.74124405     0.05600
C1309       C  0.65321279  0.85003120  0.76333214    -0.10300
C1310       C  0.63436178  0.86876194  0.76388359    -0.11900
C1311       C  0.61961347  0.87355890  0.74238965    -0.01700
C1312       C  0.62445975  0.85929453  0.72023395    -0.10800
C1313       C  0.67765715  0.81538076  0.74088713     0.05700
H1314       H  0.66426960  0.84690115  0.78018561     0.07600
H1315       H  0.63128124  0.87938945  0.78124758     0.11000
H1316       H  0.61352982  0.86241672  0.70329528     0.11300
H1317       H  0.64639948  0.82980156  0.70241746     0.07600
C1318       C  0.68041257  0.79887835  0.76173592    -0.11500
C1319       C  0.69887257  0.77977986  0.76152401    -0.10800
C1320       C  0.71525871  0.77680027  0.74054442    -0.01700
C1321       C  0.71250637  0.79330136  0.71965336    -0.11900
C1322       C  0.69384492  0.81226399  0.71977027    -0.10300
H1323       H  0.66806365  0.80054929  0.77816037     0.07600
H1324       H  0.70044097  0.76749704  0.77797627     0.11300
H1325       H  0.72477270  0.79157827  0.70317065     0.11000
H1326       H  0.69235080  0.82478458  0.70348745     0.07600
C1327       C  0.47896342  0.33854499  0.09358112    -0.11500
C1328       C  0.49191011  0.34661265  0.07167964     0.05600
C1329       C  0.49379704  0.32984495  0.05085781    -0.10300
C1330       C  0.48133963  0.30634652  0.05135531    -0.11900
C1331       C  0.46670649  0.29941015  0.07266588    -0.01700
C1332       C  0.46641623  0.31542081  0.09399537    -0.10800
C1333       C  0.50067526  0.37342247  0.06984594     0.05700
H1334       H  0.50368918  0.33551024  0.03368150     0.07600
H1335       H  0.48205356  0.29433542  0.03469318     0.11000
H1336       H  0.45583109  0.31039877  0.11097615     0.11300
H1337       H  0.47775588  0.35058346  0.11019949     0.07600
C1338       C  0.48544676  0.39323091  0.07965925    -0.11500
C1339       C  0.49138508  0.41871838  0.07521467    -0.10800
C1340       C  0.51281375  0.42508505  0.06103027    -0.01700
C1341       C  0.52916445  0.40532512  0.05285284    -0.11900
C1342       C  0.52302003  0.37976956  0.05697311    -0.10300
H1343       H  0.46791441  0.38908212  0.08938732     0.07600
H1344       H  0.47830101  0.43337322  0.08138602     0.11300
H1345       H  0.54574061  0.40949237  0.04147310     0.11000
H1346       H  0.53527545  0.36503476  0.04936835     0.07600
C1347       C  0.54092813  0.33065368  0.93455769    -0.11500
C1348       C  0.53131629  0.33452752  0.95918631     0.05600
C1349       C  0.53193108  0.31432952  0.97672194    -0.10300
C1350       C  0.54260347  0.29088457  0.96989658    -0.11900
C1351       C  0.55292006  0.28735226  0.94544443    -0.01700
C1352       C  0.55166115  0.30742227  0.92780371    -0.10800
C1353       C  0.52211358  0.36005565  0.96672424     0.05700
H1354       H  0.52491789  0.31689753  0.99595258     0.07600
H1355       H  0.54337924  0.27582231  0.98392527     0.11000
H1356       H  0.55920694  0.30533775  0.90870901     0.11300
H1357       H  0.54032549  0.34570385  0.92049096     0.07600
C1358       C  0.53529521  0.38165003  0.95855221    -0.11500
C1359       C  0.52760322  0.40575151  0.96619244    -0.10800
C1360       C  0.50670017  0.40888988  0.98245954    -0.01700
C1361       C  0.49302628  0.38744284  0.99020188    -0.11900
C1362       C  0.50069617  0.36315175  0.98236171    -0.10300
H1363       H  0.55210028  0.37989693  0.94685234     0.07600
H1364       H  0.53862931  0.42190485  0.95997855     0.11300
H1365       H  0.47703697  0.38934839  0.00299976     0.11000
H1366       H  0.49004372  0.34680053  0.98866633     0.07600
C1367       C  0.62062028  0.48697346  0.07381264    -0.11500
C1368       C  0.64198196  0.49034014  0.05819459     0.05600
C1369       C  0.64024702  0.50644314  0.03686713    -0.10300
C1370       C  0.61740689  0.51779403  0.03053218    -0.11900
C1371       C  0.59583523  0.51272291  0.04504871    -0.01700
C1372       C  0.59770170  0.49785456  0.06712730    -0.10800
C1373       C  0.66555659  0.47612687  0.06337736     0.05700
H1374       H  0.65613647  0.50910349  0.02411622     0.07600
H1375       H  0.61613152  0.52847181  0.01297676     0.11000
H1376       H  0.58107733  0.49340607  0.07836648     0.11300
H1377       H  0.62136408  0.47524793  0.09070391     0.07600
C1378       C  0.68906759  0.48689516  0.05764347    -0.11500
C1379       C  0.71118234  0.47325871  0.06202573    -0.10800
C1380       C  0.71025823  0.44880419  0.07268399    -0.01700
C1381       C  0.68684208  0.43798294  0.07843075    -0.11900
C1382       C  0.66473235  0.45137957  0.07357479    -0.10300
H1383       H  0.69045627  0.50598556  0.05009897     0.07600
H1384       H  0.72904245  0.48207097  0.05753388     0.11300
H1385       H  0.68559077  0.41899520  0.08631883     0.11000
H1386       H  0.64698653  0.44212248  0.07751221     0.07600
C1387       C  0.61587228  0.53283565  0.93921138    -0.11500
C1388       C  0.63583617  0.51645492  0.94592478     0.05600
C1389       C  0.63027884  0.49412002  0.95939056    -0.10300
C1390       C  0.60548713  0.48865170  0.96650959    -0.11900
C1391       C  0.58560559  0.50562385  0.96081111    -0.01700
C1392       C  0.59108116  0.52760605  0.94676856    -0.10800
C1393       C  0.66229529  0.52334782  0.93952741     0.05700
H1394       H  0.64513975  0.48105156  0.96473400     0.07600
H1395       H  0.60213692  0.47171988  0.97777854     0.11000
H1396       H  0.57639234  0.54127294  0.94255189     0.11300
H1397       H  0.61957374  0.55038422  0.92909126     0.07600
C1398       C  0.66794992  0.53428685  0.91585227    -0.11500
C1399       C  0.69179101  0.54394157  0.91065789    -0.10800
C1400       C  0.71081756  0.54289384  0.92894808    -0.01700
C1401       C  0.70579344  0.53041980  0.95210852    -0.11900
C1402       C  0.68170339  0.52073649  0.95737200    -0.10300
H1403       H  0.65366981  0.53595683  0.90146669     0.07600
H1404       H  0.69509578  0.55289027  0.89238486     0.11300
H1405       H  0.72005410  0.52920378  0.96655349     0.11000
H1406       H  0.67794196  0.51234825  0.97582555     0.07600
C1407       C  0.50836705  0.62570717  0.07086962    -0.11500
C1408       C  0.53360961  0.62872791  0.07749949     0.05600
C1409       C  0.54926616  0.60702772  0.07840141    -0.10300
C1410       C  0.54027602  0.58315382  0.07132815    -0.11900
C1411       C  0.51544737  0.58044815  0.06316687    -0.01700
C1412       C  0.49936577  0.60185827  0.06385370    -0.10800
C1413       C  0.54389044  0.65444303  0.08261764     0.05700
H1414       H  0.56885873  0.60870651  0.08328941     0.07600
H1415       H  0.55324793  0.56717584  0.07067409     0.11000
H1416       H  0.48012431  0.60048365  0.05763915     0.11300
H1417       H  0.49570129  0.64193168  0.07050961     0.07600
C1418       C  0.53723051  0.67564202  0.06760130    -0.11500
C1419       C  0.54798578  0.69955178  0.07184337    -0.10800
C1420       C  0.56556865  0.70271862  0.09122693    -0.01700
C1421       C  0.57182722  0.68149545  0.10638664    -0.11900
C1422       C  0.56117013  0.65777961  0.10214483    -0.10300
H1423       H  0.52415830  0.67360181  0.05216756     0.07600
H1424       H  0.54277927  0.71540340  0.05979842     0.11300
H1425       H  0.58518167  0.68304089  0.12163091     0.11000
H1426       H  0.56644284  0.64200452  0.11427218     0.07600
C1427       C  0.47468629  0.61811791  0.94315094    -0.11500
C1428       C  0.48628209  0.64007511  0.95245983     0.05600
C1429       C  0.50723115  0.63706900  0.96835033    -0.10300
C1430       C  0.51474818  0.61282596  0.97666896    -0.11900
C1431       C  0.50151079  0.59117169  0.96915625    -0.01700
C1432       C  0.48228079  0.59403485  0.95127244    -0.10800
C1433       C  0.47438406  0.66552492  0.94819871     0.05700
H1434       H  0.51702986  0.65351472  0.97539682     0.07600
H1435       H  0.52967809  0.61123984  0.99037359     0.11000
H1436       H  0.47179909  0.57772180  0.94489708     0.11300
H1437       H  0.45842161  0.61945212  0.93108444     0.07600
C1438       C  0.46124111  0.67081506  0.92572376    -0.11500
C1439       C  0.44616893  0.69261536  0.92371854    -0.10800
C1440       C  0.44422547  0.70992042  0.94393649    -0.01700
C1441       C  0.45863756  0.70557742  0.96571295    -0.11900
C1442       C  0.47339309  0.68357646  0.96789374    -0.10300
H1443       H  0.46200174  0.65772938  0.90989564     0.07600
H1444       H  0.43568292  0.69568110  0.90647400     0.11300
H1445       H  0.45761808  0.71858341  0.98161288     0.11000
H1446       H  0.48289423  0.68011340  0.98563218     0.07600
C1447       C  0.33477911  0.53038633  0.09259750    -0.11500
C1448       C  0.34188620  0.51999631  0.06901085     0.05600
C1449       C  0.32407137  0.51983147  0.04940319    -0.10300
C1450       C  0.30024274  0.53107045  0.05299599    -0.11900
C1451       C  0.29397436  0.54293801  0.07611972    -0.01700
C1452       C  0.31130370  0.54186118  0.09602104    -0.10800
C1453       C  0.36838373  0.51151954  0.06448875     0.05700
H1454       H  0.32892796  0.51214626  0.03092109     0.07600
H1455       H  0.28726651  0.53161867  0.03732612     0.11000
H1456       H  0.30689125  0.55038907  0.11425248     0.11300
H1457       H  0.34762953  0.53021030  0.10837676     0.07600
C1458       C  0.38818825  0.52513992  0.07535972    -0.11500
C1459       C  0.41312272  0.51917057  0.06941467    -0.10800
C1460       C  0.41902615  0.49959515  0.05220752    -0.01700
C1461       C  0.39942751  0.48499182  0.04235029    -0.11900
C1462       C  0.37433039  0.49093887  0.04839521    -0.10300
H1463       H  0.38448600  0.54137274  0.08746711     0.07600
H1464       H  0.42776922  0.53091685  0.07720912     0.11300
H1465       H  0.40338256  0.46999183  0.02879492     0.11000
H1466       H  0.35957906  0.47984608  0.03994429     0.07600
C1467       C  0.40326715  0.45525590  0.94241958    -0.11500
C1468       C  0.38160961  0.47048179  0.94584388     0.05600
C1469       C  0.38404832  0.49484011  0.95608258    -0.10300
C1470       C  0.40743429  0.50351373  0.96369939    -0.11900
C1471       C  0.42900828  0.48783219  0.96179207    -0.01700
C1472       C  0.42676111  0.46376625  0.95055198    -0.10800
C1473       C  0.35640262  0.46086961  0.93934658     0.05700
H1474       H  0.36772018  0.50706766  0.95856951     0.07600
H1475       H  0.40829438  0.52214868  0.97231682     0.11000
H1476       H  0.44285219  0.45108495  0.94914428     0.11300
H1477       H  0.40179974  0.43634617  0.93453066     0.07600
C1478       C  0.35241684  0.44972039  0.91565885    -0.11500
C1479       C  0.32887097  0.44016825  0.90961693    -0.10800
C1480       C  0.30871772  0.44124952  0.92725487    -0.01700
C1481       C  0.31257383  0.45290693  0.95084552    -0.11900
C1482       C  0.33620014  0.46271160  0.95680467    -0.10300
H1483       H  0.36756758  0.44843679  0.90176037     0.07600
H1484       H  0.32662723  0.43158768  0.89113303     0.11300
H1485       H  0.29753514  0.45398772  0.96486975     0.11000
H1486       H  0.33887973  0.47120011  0.97527467     0.07600
C1487       C  0.05949141  0.47125158  0.37676808    -0.11500
C1488       C  0.05237907  0.48540731  0.35529755     0.05600
C1489       C  0.03863919  0.50808047  0.35885020    -0.10300
C1490       C  0.03166364  0.51605268  0.38334916    -0.11900
C1491       C  0.03799327  0.50131149  0.40470877    -0.01700
C1492       C  0.05229087  0.47903532  0.40114782    -0.10800
C1493       C  0.05857295  0.47571770  0.32943430     0.05700
H1494       H  0.03298561  0.51941591  0.34267425     0.07600
H1495       H  0.02023882  0.53306764  0.38546152     0.11000
H1496       H  0.05714120  0.46708236  0.41716266     0.11300
H1497       H  0.06976653  0.45350964  0.37465348     0.07600
C1498       C  0.08226058  0.46484708  0.32441265    -0.11500
C1499       C  0.08739110  0.45299711  0.30123218    -0.10800
C1500       C  0.06898116  0.45169514  0.28235906    -0.01700
C1501       C  0.04562784  0.46365755  0.28683228    -0.11900
C1502       C  0.04046540  0.47554321  0.31018654    -0.10300
H1503       H  0.09673892  0.46508651  0.33866865     0.07600
H1504       H  0.10572841  0.44435666  0.29834024     0.11300
H1505       H  0.03103820  0.46299192  0.27271396     0.11000
H1506       H  0.02197551  0.48361170  0.31359175     0.07600
C1507       C  0.92099487  0.52881004  0.32575162    -0.11500
C1508       C  0.94320686  0.51571529  0.33182475     0.05600
C1509       C  0.96282459  0.51466686  0.31364291    -0.10300
C1510       C  0.96070158  0.52750941  0.29042534    -0.11900
C1511       C  0.93903758  0.54186016  0.28513073    -0.01700
C1512       C  0.91899088  0.54183454  0.30275235    -0.10800
C1513       C  0.94678633  0.50535594  0.35783327     0.05700
H1514       H  0.98030024  0.50501142  0.31786579     0.07600
H1515       H  0.97646666  0.52724773  0.27721438     0.11000
H1516       H  0.90188222  0.55239489  0.29900866     0.11300
H1517       H  0.90536347  0.52955033  0.33909977     0.07600
C1518       C  0.93851397  0.51943321  0.37908534    -0.11500
C1519       C  0.94488269  0.51182206  0.40360974    -0.10800
C1520       C  0.95948661  0.48987106  0.40746086    -0.01700
C1521       C  0.96637853  0.47485591  0.38639489    -0.11900
C1522       C  0.96019462  0.48259595  0.36180036    -0.10300
H1523       H  0.92842583  0.53721357  0.37672966     0.07600
H1524       H  0.93952238  0.52388091  0.41946328     0.11300
H1525       H  0.97796426  0.45802351  0.38875615     0.11000
H1526       H  0.96660924  0.47120808  0.34584174     0.07600
C1527       C  0.05148274  0.53953195  0.66736431    -0.11500
C1528       C  0.06300611  0.55172363  0.64647169     0.05600
C1529       C  0.07578756  0.57457199  0.65044080    -0.10300
C1530       C  0.07691384  0.58511825  0.67464880    -0.11900
C1531       C  0.06516905  0.57318886  0.69553971    -0.01700
C1532       C  0.05243169  0.55023972  0.69168182    -0.10800
C1533       C  0.06014883  0.54177944  0.62032569     0.05700
H1534       H  0.08488875  0.58434817  0.63475961     0.07600
H1535       H  0.08681050  0.60288589  0.67689828     0.11000
H1536       H  0.04327427  0.54057933  0.70740230     0.11300
H1537       H  0.04114424  0.52207715  0.66476906     0.07600
C1538       C  0.06200043  0.51557230  0.61519612    -0.11500
C1539       C  0.05588401  0.50619563  0.59118169    -0.10800
C1540       C  0.04761537  0.52287427  0.57216158    -0.01700
C1541       C  0.04736620  0.54912908  0.57677132    -0.11900
C1542       C  0.05371793  0.55850671  0.60055682    -0.10300
H1543       H  0.06714146  0.50231436  0.63002545     0.07600
H1544       H  0.05550071  0.48580633  0.58819410     0.11300
H1545       H  0.04043342  0.56221517  0.56253247     0.11000
H1546       H  0.05187149  0.57876283  0.60396664     0.07600
C1547       C  0.94320981  0.46252767  0.67563455    -0.11500
C1548       C  0.92790645  0.46000406  0.65421554     0.05600
C1549       C  0.90445412  0.44834846  0.65702957    -0.10300
C1550       C  0.89712060  0.43796076  0.68045803    -0.11900
C1551       C  0.91299389  0.43925952  0.70164307    -0.01700
C1552       C  0.93576105  0.45242614  0.69915637    -0.10800
C1553       C  0.93795330  0.46622057  0.62856155     0.05700
H1554       H  0.89244850  0.44597929  0.64076638     0.07600
H1555       H  0.87934374  0.42813672  0.68171711     0.11000
H1556       H  0.94838522  0.45387585  0.71503798     0.11300
H1557       H  0.96139957  0.47150797  0.67389626     0.07600
C1558       C  0.92466309  0.48153103  0.61124054    -0.11500
C1559       C  0.93495794  0.48692094  0.58704570    -0.10800
C1560       C  0.95841486  0.47659577  0.57974460    -0.01700
C1561       C  0.97102258  0.46058976  0.59700129    -0.11900
C1562       C  0.96105871  0.45568442  0.62103606    -0.10300
H1563       H  0.90664845  0.48969656  0.61663724     0.07600
H1564       H  0.92484998  0.49941946  0.57431655     0.11300
H1565       H  0.98907159  0.45213004  0.59221582     0.11000
H1566       H  0.97141461  0.44339924  0.63379392     0.07600
C1567       C  0.04245246  0.37107448  0.48364548    -0.11500
C1568       C  0.06149362  0.36760096  0.50159366     0.05600
C1569       C  0.07387109  0.38925746  0.51077681    -0.10300
C1570       C  0.06656608  0.41374681  0.50319150    -0.11900
C1571       C  0.04669370  0.41723566  0.48621716    -0.01700
C1572       C  0.03520658  0.39555607  0.47599554    -0.10800
C1573       C  0.06773827  0.34173845  0.51166267     0.05700
H1574       H  0.08841949  0.38739105  0.52484682     0.07600
H1575       H  0.07559359  0.42997365  0.51168845     0.11000
H1576       H  0.01966955  0.39749773  0.46303866     0.11300
H1577       H  0.03276502  0.35487365  0.47588875     0.07600
C1578       C  0.04879239  0.32376099  0.51689259    -0.11500
C1579       C  0.05460702  0.30036533  0.52848268    -0.10800
C1580       C  0.07942906  0.29460495  0.53529637    -0.01700
C1581       C  0.09840162  0.31215685  0.52917557    -0.11900
C1582       C  0.09267237  0.33529637  0.51742771    -0.10300
H1583       H  0.02932808  0.32816878  0.51295937     0.07600
H1584       H  0.03957532  0.28732337  0.53313429     0.11300
H1585       H  0.11778227  0.30816654  0.53388203     0.11000
H1586       H  0.10780885  0.34833845  0.51317968     0.07600
C1587       C  0.91723452  0.33659766  0.45934256    -0.11500
C1588       C  0.94060197  0.34191744  0.47021105     0.05600
C1589       C  0.95948723  0.32299416  0.46926184    -0.10300
C1590       C  0.95529657  0.29969969  0.45717468    -0.11900
C1591       C  0.93222480  0.29490718  0.44548573    -0.01700
C1592       C  0.91317404  0.31350896  0.44702621    -0.10800
C1593       C  0.94570136  0.36761066  0.48099859     0.05700
H1594       H  0.97786118  0.32648182  0.47707511     0.07600
H1595       H  0.97037716  0.28579644  0.45629259     0.11000
H1596       H  0.89502995  0.31029503  0.43857042     0.11300
H1597       H  0.90206124  0.35038165  0.46015801     0.07600
C1598       C  0.93572632  0.38960855  0.46948584    -0.11500
C1599       C  0.94263633  0.41385314  0.47759706    -0.10800
C1600       C  0.95991698  0.41680937  0.49731906    -0.01700
C1601       C  0.96874561  0.39487899  0.50985403    -0.11900
C1602       C  0.96170649  0.37059159  0.50182726    -0.10300
H1603       H  0.92363363  0.38818968  0.45317892     0.07600
H1604       H  0.93572134  0.43022042  0.46723460     0.11300
H1605       H  0.98221016  0.39640184  0.52502080     0.11000
H1606       H  0.96938388  0.35415263  0.51148700     0.07600
C1607       C  0.95982379  0.67235652  0.51327028    -0.11500
C1608       C  0.93985318  0.65486326  0.51243602     0.05600
C1609       C  0.91647204  0.66225459  0.52276490    -0.10300
C1610       C  0.91347448  0.68565174  0.53497170    -0.11900
C1611       C  0.93368844  0.70257031  0.53702837    -0.01700
C1612       C  0.95672246  0.69603208  0.52534946    -0.10800
C1613       C  0.94369133  0.62842041  0.50257318     0.05700
H1614       H  0.90049269  0.64966705  0.52190768     0.07600
H1615       H  0.89534249  0.69025465  0.54337169     0.11000
H1616       H  0.97267142  0.70862035  0.52666274     0.11300
H1617       H  0.97816492  0.66729955  0.50567251     0.07600
C1618       C  0.95968244  0.62348324  0.48168545    -0.11500
C1619       C  0.96508646  0.59843511  0.47421837    -0.10800
C1620       C  0.95472263  0.57761685  0.48752969    -0.01700
C1621       C  0.93767442  0.58257407  0.50751100    -0.11900
C1622       C  0.93225877  0.60760585  0.51496315    -0.10300
H1623       H  0.96852476  0.63899484  0.47143197     0.07600
H1624       H  0.97842587  0.59537730  0.45883339     0.11300
H1625       H  0.92963216  0.56706458  0.51843687     0.11000
H1626       H  0.92011605  0.61054436  0.53132765     0.07600
C1627       C  0.09342238  0.65508984  0.46279999    -0.11500
C1628       C  0.06982937  0.65089947  0.47432292     0.05600
C1629       C  0.05275819  0.67146584  0.47601605    -0.10300
C1630       C  0.05886949  0.69529166  0.46578083    -0.11900
C1631       C  0.08207344  0.69908351  0.45335263    -0.01700
C1632       C  0.09940888  0.67879148  0.45234516    -0.10800
C1633       C  0.06242262  0.62488855  0.48299173     0.05700
H1634       H  0.03426895  0.66895385  0.48437840     0.07600
H1635       H  0.04503796  0.71048868  0.46684701     0.11000
H1636       H  0.11758126  0.68111429  0.44321447     0.11300
H1637       H  0.10726926  0.63993151  0.46159852     0.07600
C1638       C  0.07005615  0.60325211  0.46909390    -0.11500
C1639       C  0.06070552  0.57916896  0.47522764    -0.10800
C1640       C  0.04331511  0.57609076  0.49528416    -0.01700
C1641       C  0.03685771  0.59742025  0.51015765    -0.11900
C1642       C  0.04633759  0.62148994  0.50412327    -0.10300
H1643       H  0.08216118  0.60504483  0.45253345     0.07600
H1644       H  0.06591557  0.56323698  0.46320929     0.11300
H1645       H  0.02352215  0.59575947  0.52576187     0.11000
H1646       H  0.04047660  0.63757052  0.51562806     0.07600
C1647       C  0.51304067  0.03745973  0.62468313    -0.11500
C1648       C  0.49532923  0.05682760  0.62952067     0.05600
C1649       C  0.48387139  0.06895638  0.60870690    -0.10300
C1650       C  0.48902074  0.06100723  0.58379797    -0.11900
C1651       C  0.50581659  0.04080212  0.57908868    -0.01700
C1652       C  0.51829832  0.02961809  0.59979055    -0.10800
C1653       C  0.48772497  0.06352006  0.65606401     0.05700
H1654       H  0.46993122  0.08377304  0.61170784     0.07600
H1655       H  0.47892337  0.06986118  0.56834502     0.11000
H1656       H  0.53124370  0.01387383  0.59690311     0.11300
H1657       H  0.52246886  0.02797382  0.64020012     0.07600
C1658       C  0.48421276  0.04453325  0.67475677    -0.11500
C1659       C  0.47425885  0.05070181  0.69883058    -0.10800
C1660       C  0.46746496  0.07590560  0.70452536    -0.01700
C1661       C  0.47222646  0.09496101  0.68631922    -0.11900
C1662       C  0.48230737  0.08887878  0.66248476    -0.10300
H1663       H  0.48798985  0.02475884  0.67038311     0.07600
H1664       H  0.47055188  0.03562239  0.71240211     0.11300
H1665       H  0.46741296  0.11461952  0.69026406     0.11000
H1666       H  0.48530396  0.10403396  0.64882418     0.07600
C1667       C  0.54035877  0.90478142  0.65642232    -0.11500
C1668       C  0.52583116  0.92685398  0.65255039     0.05600
C1669       C  0.52241818  0.94372852  0.67312242    -0.10300
C1670       C  0.53433777  0.93927684  0.69642654    -0.11900
C1671       C  0.55006051  0.91791051  0.69966332    -0.01700
C1672       C  0.55233209  0.90043929  0.67952429    -0.10800
C1673       C  0.51607275  0.93306232  0.62666345     0.05700
H1674       H  0.51148263  0.96102229  0.67088618     0.07600
H1675       H  0.53203632  0.95307433  0.71151110     0.11000
H1676       H  0.56388179  0.88349967  0.68135336     0.11300
H1677       H  0.54290585  0.89098513  0.64137618     0.07600
C1678       C  0.53064361  0.92740386  0.60483433    -0.11500
C1679       C  0.52307133  0.93539514  0.58071335    -0.10800
C1680       C  0.50079912  0.94951329  0.57767468    -0.01700
C1681       C  0.48552588  0.95406926  0.59926615    -0.11900
C1682       C  0.49304194  0.94591916  0.62344043    -0.10300
H1683       H  0.54867983  0.91794288  0.60645487     0.07600
H1684       H  0.53554694  0.93191427  0.56466622     0.11300
H1685       H  0.46828305  0.96498575  0.59765642     0.11000
H1686       H  0.48110659  0.95025883  0.63968043     0.07600
C1687       C  0.32142507  0.04232319  0.45674003    -0.11500
C1688       C  0.34257602  0.05605338  0.44834737     0.05600
C1689       C  0.33967166  0.07407811  0.42893880    -0.10300
C1690       C  0.31631587  0.07804107  0.41782224    -0.11900
C1691       C  0.29514798  0.06391956  0.42561740    -0.01700
C1692       C  0.29792990  0.04614118  0.44541799    -0.10800
C1693       C  0.36797066  0.05056395  0.45848810     0.05700
H1694       H  0.35559206  0.08502301  0.42222581     0.07600
H1695       H  0.31502679  0.09207254  0.40279151     0.11000
H1696       H  0.28209763  0.03495972  0.45190762     0.11300
H1697       H  0.32325280  0.02809344  0.47153281     0.07600
C1698       C  0.37211797  0.04889760  0.48477328    -0.11500
C1699       C  0.39582459  0.04184819  0.49392827    -0.10800
C1700       C  0.41552775  0.03593489  0.47693188    -0.01700
C1701       C  0.41159381  0.03838593  0.45074007    -0.11900
C1702       C  0.38816048  0.04594464  0.44162461    -0.10300
H1703       H  0.35689967  0.05247904  0.49813633     0.07600
H1704       H  0.39829731  0.03937626  0.51419277     0.11300
H1705       H  0.42636473  0.03332687  0.43732203     0.11000
H1706       H  0.38545094  0.04690098  0.42126936     0.07600
C1707       C  0.38321995  0.92333892  0.50666556    -0.11500
C1708       C  0.37534929  0.92286873  0.53222764     0.05600
C1709       C  0.39237989  0.92967868  0.55116492    -0.10300
C1710       C  0.41607441  0.93882117  0.54456772    -0.11900
C1711       C  0.42334072  0.94084589  0.51898953    -0.01700
C1712       C  0.40723333  0.93205436  0.50008347    -0.10800
C1713       C  0.34890372  0.91785712  0.53943151     0.05700
H1714       H  0.38671308  0.92971868  0.57098502     0.07600
H1715       H  0.42811376  0.94596428  0.55935510     0.11000
H1716       H  0.41233693  0.93403748  0.48020795     0.11300
H1717       H  0.37041123  0.91805620  0.49178023     0.07600
C1718       C  0.32914164  0.93094975  0.52748526    -0.11500
C1719       C  0.30460471  0.92964364  0.53737432    -0.10800
C1720       C  0.29950302  0.91510031  0.55925017    -0.01700
C1721       C  0.31916863  0.90092304  0.57017415    -0.11900
C1722       C  0.34353221  0.90236719  0.56043605    -0.10300
H1723       H  0.33290257  0.94323030  0.51136570     0.07600
H1724       H  0.28987260  0.94065122  0.52842550     0.11300
H1725       H  0.31601160  0.88926343  0.58686557     0.11000
H1726       H  0.35841223  0.89196657  0.56985314     0.07600
C1727       C  0.48530566  0.04567414  0.37751977    -0.11500
C1728       C  0.50653596  0.06119875  0.37443505     0.05600
C1729       C  0.51908357  0.06942218  0.39625302    -0.10300
C1730       C  0.51199809  0.06051753  0.42028564    -0.11900
C1731       C  0.49243267  0.04289970  0.42302192    -0.01700
C1732       C  0.47836921  0.03655581  0.40155516    -0.10800
C1733       C  0.51729026  0.06650191  0.34872481     0.05700
H1734       H  0.53561731  0.08120268  0.39469219     0.07600
H1735       H  0.52333030  0.06569954  0.43637779     0.11000
H1736       H  0.46310836  0.02310631  0.40303375     0.11300
H1737       H  0.47479434  0.03951949  0.36120878     0.07600
C1738       C  0.51718170  0.04763018  0.32979482    -0.11500
C1739       C  0.52991487  0.05131990  0.30670391    -0.10800
C1740       C  0.54334083  0.07380947  0.30213252    -0.01700
C1741       C  0.54280484  0.09298556  0.32066662    -0.11900
C1742       C  0.52979351  0.08945007  0.34360280    -0.10300
H1743       H  0.50819629  0.02950946  0.33319035     0.07600
H1744       H  0.53002369  0.03613903  0.29283643     0.11300
H1745       H  0.55268472  0.11067717  0.31757396     0.11000
H1746       H  0.52990215  0.10456878  0.35751522     0.07600
C1747       C  0.50978142  0.96310302  0.36968122    -0.11500
C1748       C  0.49156372  0.94435805  0.36542119     0.05600
C1749       C  0.48215382  0.93075475  0.38655586    -0.10300
C1750       C  0.49010658  0.93615961  0.41119076    -0.11900
C1751       C  0.50756969  0.95551820  0.41552659    -0.01700
C1752       C  0.51763422  0.96861846  0.39439660    -0.10800
C1753       C  0.48162085  0.93948752  0.33937021     0.05700
H1754       H  0.46772553  0.91655661  0.38427963     0.07600
H1755       H  0.48158085  0.92602662  0.42696251     0.11000
H1756       H  0.53088680  0.98391088  0.39702671     0.11300
H1757       H  0.51773834  0.97378152  0.35398615     0.07600
C1758       C  0.47837220  0.95937843  0.32163208    -0.11500
C1759       C  0.46707325  0.95491330  0.29808707    -0.10800
C1760       C  0.45846053  0.93051574  0.29189313    -0.01700
C1761       C  0.46249470  0.91055160  0.30920304    -0.11900
C1762       C  0.47407020  0.91489598  0.33244917    -0.10300
H1763       H  0.48368557  0.97865612  0.32627788     0.07600
H1764       H  0.46415009  0.97070837  0.28522923     0.11300
H1765       H  0.45642471  0.89141984  0.30488483     0.11000
H1766       H  0.47685017  0.89893696  0.34511438     0.07600
C1767       C  0.66318596  0.07340426  0.53846865    -0.11500
C1768       C  0.65756449  0.05166580  0.52432115     0.05600
C1769       C  0.67560145  0.03196202  0.52262410    -0.10300
C1770       C  0.69830743  0.03358377  0.53576285    -0.11900
C1771       C  0.70324731  0.05484027  0.55095764    -0.01700
C1772       C  0.68564615  0.07494498  0.55165550    -0.10800
C1773       C  0.63222720  0.04882938  0.51315522     0.05700
H1774       H  0.67168934  0.01485181  0.51207808     0.07600
H1775       H  0.71147142  0.01778325  0.53488561     0.11000
H1776       H  0.68900223  0.09180881  0.56282058     0.11300
H1777       H  0.64993790  0.08911350  0.53975604     0.07600
C1778       C  0.61072300  0.05625684  0.52717767    -0.11500
C1779       C  0.58672761  0.05106767  0.51825487    -0.10800
C1780       C  0.58364565  0.03851827  0.49504017    -0.01700
C1781       C  0.60504487  0.03247294  0.48024423    -0.11900
C1782       C  0.62911662  0.03743917  0.48930635    -0.10300
H1783       H  0.61242351  0.06479424  0.54573724     0.07600
H1784       H  0.57059336  0.05565485  0.53021291     0.11300
H1785       H  0.60326514  0.02238406  0.46248335     0.11000
H1786       H  0.64532405  0.03171941  0.47796917     0.07600
C1787       C  0.66935427  0.91275540  0.47459043    -0.11500
C1788       C  0.66489696  0.93787141  0.48232957     0.05600
C1789       C  0.68507386  0.95510124  0.48186764    -0.10300
C1790       C  0.70890430  0.94756824  0.47252209    -0.11900
C1791       C  0.71287330  0.92265090  0.46357469    -0.01700
C1792       C  0.69290882  0.90527093  0.46542997    -0.10800
C1793       C  0.63887551  0.94588807  0.48951920     0.05700
H1794       H  0.68215499  0.97463549  0.48775239     0.07600
H1795       H  0.72384346  0.96138442  0.47145325     0.11000
H1796       H  0.69524872  0.88574133  0.45926624     0.11300
H1797       H  0.65442599  0.89889367  0.47527278     0.07600
C1798       C  0.61848970  0.93817711  0.47468496    -0.11500
C1799       C  0.59390741  0.94556182  0.48098610    -0.10800
C1800       C  0.58904086  0.96051747  0.50253583    -0.01700
C1801       C  0.60934413  0.96795760  0.51764001    -0.11900
C1802       C  0.63404392  0.96089931  0.51108842    -0.10300
H1803       H  0.62164034  0.92686242  0.45774800     0.07600
H1804       H  0.57875008  0.93990961  0.46877066     0.11300
H1805       H  0.60622330  0.98002623  0.53405658     0.11000
H1806       H  0.64931907  0.96706965  0.52288753     0.07600
loop_ 
_geom_bond_atom_site_label_1 
_geom_bond_atom_site_label_2 
_geom_bond_distance 
_geom_bond_site_symmetry_2 
_ccdc_geom_bond_type 
O1            C9   1.293       .  A
O1          Co21   2.094   1_545  S
O2           C10   1.267   1_565  A
O2          Co22   1.993       .  S
O3           C11   1.270       .  A
O3          Co23   1.966       .  S
O4           C12   1.264       .  A
O4          Co24   1.983       .  S
O5           C11   1.280       .  A
O5          Co22   2.028   1_545  S
O6           C12   1.264       .  A
O6          Co21   1.999   1_545  S
O7           C10   1.269       .  A
O7          Co24   1.991       .  S
O8            C9   1.266       .  A
O8          Co23   1.905       .  S
C9         C1780   1.476       .  S
C10        C1700   1.472       .  S
C11        C1731   1.480       .  S
C12        C1651   1.485       .  S
O13          C26   1.272       .  A
O13         Co21   1.974       .  S
O14          C27   1.260       .  A
O14         Co22   1.972       .  S
O15          C28   1.298       .  A
O15         Co23   2.105   1_565  S
O16          C29   1.271       .  A
O16         Co24   1.996   1_565  S
O17          C29   1.267       .  A
O17         Co22   1.973       .  S
O18          C28   1.267       .  A
O18         Co21   1.900       .  S
O19          C26   1.279       .  A
O19         Co24   2.032   1_565  S
O20          C27   1.262       .  A
O20         Co23   2.010   1_565  S
Co21         O25   2.014       .  S
Co22         O25   2.042       .  S
Co23         O25   2.024   1_545  S
Co24         O25   2.042   1_545  S
C26        C1680   1.489       .  S
C27        C1751   1.490       .  S
C28        C1800   1.482       .  S
C29        C1711   1.464       .  S
O30          C38   1.264       .  A
O30         Co50   1.978       .  S
O31          C39   1.270       .  A
O31         Co51   1.967       .  S
O32          C40   1.294       .  A
O32         Co52   2.096   1_655  S
O33          C41   1.270       .  A
O33         Co53   1.989   1_655  S
O34          C40   1.266       .  A
O34         Co51   1.900       .  S
O35          C41   1.273       .  A
O35         Co50   1.997       .  S
O36          C39   1.281       .  A
O36         Co53   2.037   1_655  S
O37          C38   1.263       .  A
O37         Co52   2.002   1_655  S
C38        C1620   1.489       .  S
C39        C1600   1.487       .  S
C40        C1520   1.476       .  S
C41        C1560   1.488       .  S
O42          C55   1.268       .  A
O42         Co50   1.987   1_455  S
O43          C56   1.294       .  A
O43         Co51   2.094   1_455  S
O44          C57   1.272       .  A
O44         Co52   1.972       .  S
O45          C58   1.262       .  A
O45         Co53   1.977       .  S
O46          C58   1.262       .  A
O46         Co51   2.003   1_455  S
O47          C57   1.280       .  A
O47         Co50   2.032   1_455  S
O48          C55   1.269       .  A
O48         Co53   1.986       .  S
O49          C56   1.267       .  A
O49         Co52   1.907       .  S
Co50         O54   2.043   1_655  S
Co51         O54   2.018   1_655  S
Co52         O54   2.019       .  S
Co53         O54   2.039       .  S
C55        C1540   1.465       .  S
C56        C1491   1.480       .  S
C57        C1640   1.486       .  S
C58        C1571   1.487       .  S
O59          C67   1.271       .  A
O59         Co79   1.988   1_556  S
O60          C68   1.268       .  A
O60         Co80   2.020   1_556  S
O61          C69   1.267       .  A
O61         Co81   1.966   1_556  S
O62          C70   1.296       .  A
O62         Co82   2.053   1_556  S
O63          C69   1.281       .  A
O63         Co80   2.033   1_556  S
O64          C70   1.277   1_554  A
O64         Co79   1.904       .  S
O65          C68   1.246       .  A
O65         Co82   1.942   1_556  S
O66          C67   1.267       .  A
O66         Co81   1.986   1_556  S
C67        C1471   1.485       .  S
C68        C1391   1.487       .  S
C69        C1431   1.483       .  S
C70        C1360   1.470       .  S
O71          C84   1.268       .  A
O71         Co79   2.019       .  S
O72          C85   1.262       .  A
O72         Co80   1.983       .  S
O73          C86   1.264       .  A
O73         Co81   1.971       .  S
O74          C87   1.292       .  A
O74         Co82   2.043       .  S
O75          C87   1.278       .  A
O75         Co80   1.905       .  S
O76          C86   1.273       .  A
O76         Co79   2.015       .  S
O77          C84   1.243       .  A
O77         Co82   1.942       .  S
O78          C85   1.262       .  A
O78         Co81   1.988       .  S
Co79         O83   1.974       .  S
Co80         O83   1.961       .  S
Co81         O83   2.007       .  S
Co82         O83   2.076       .  S
C84        C1340   1.483       .  S
C85        C1411   1.483       .  S
C86        C1460   1.479       .  S
C87        C1371   1.459       .  S
C88        C1671   1.494       .  S
C88          N89   1.367       .  A
C88          N93   1.360       .  A
N89          C90   1.367       .  A
C90        C1291   1.494       .  S
C90          N91   1.362       .  A
N91          C92   1.359       .  A
C92        C1311   1.491       .  S
C92          N93   1.357       .  A
C94        C1251   1.479       .  S
C94          N95   1.360       .  A
C94          N99   1.359       .  A
N95          C96   1.361       .  A
C96        C1271   1.489       .  S
C96          N97   1.362       .  A
N97          C98   1.361       .  A
C98        C1320   1.489       .  S
C98          N99   1.361       .  A
C100       C1611   1.488       .  S
C100        N101   1.367       .  A
C100        N105   1.360       .  A
N101        C102   1.368       .  A
C102       C1231   1.489       .  S
C102        N103   1.361       .  A
N103        C104   1.355       .  A
C104       C1280   1.487       .  S
C104        N105   1.355       .  A
C106       C1211   1.491       .  S
C106        N107   1.362       .  A
C106        N111   1.368       .  A
N107        C108   1.355       .  A
C108       C1260   1.483       .  S
C108        N109   1.353       .  A
N109        C110   1.360       .  A
C110       C1400   1.488       .  S
C110        N111   1.368       .  A
C112       C1180   1.480       .  S
C112        N113   1.355       .  A
C112        N117   1.359       .  A
N113        C114   1.354       .  A
C114       C1191   1.478       .  S
C114        N115   1.357       .  A
N115        C116   1.360       .  A
C116       C1160   1.481       .  S
C116        N117   1.361       .  A
C118       C1480   1.486       .  S
C118        N119   1.366       .  A
C118        N123   1.355       .  A
N119        C120   1.367       .  A
C120       C1140   1.484       .  S
C120        N121   1.360       .  A
N121        C122   1.355       .  A
C122       C1200   1.480       .  S
C122        N123   1.352       .  A
C124       C1120   1.494       .  S
C124        N125   1.369       .  A
C124        N129   1.360       .  A
N125        C126   1.368       .  A
C126       C1660   1.482       .  S
C126        N127   1.356       .  A
N127        C128   1.351       .  A
C128       C1171   1.480       .  S
C128        N129   1.354       .  A
C130       C1100   1.492       .  S
C130        N131   1.369       .  A
C130        N135   1.357       .  A
N131        C132   1.369       .  A
C132       C1580   1.486       .  S
C132        N133   1.359       .  A
N133        C134   1.354       .  A
C134       C1151   1.481       .  S
C134        N135   1.353       .  A
O136        C144   1.265       .  A
O136       Co156   1.984       .  S
O137        C145   1.264   1_565  A
O137       Co157   2.015       .  S
O138        C146   1.266   1_556  A
O138       Co158   1.973       .  S
O139        C147   1.291   1_554  A
O139       Co159   2.035       .  S
O140        C146   1.271       .  A
O140       Co157   1.995       .  S
O141        C147   1.281       .  A
O141       Co156   1.922       .  S
O142        C145   1.242       .  A
O142       Co159   1.952       .  S
O143        C144   1.264   1_565  A
O143       Co158   1.994       .  S
C144       C1111   1.490       .  S
C145       C1031   1.483       .  S
C146        C991   1.470       .  S
C147       C1060   1.475       .  S
O148        C161   1.267   1_556  A
O148       Co156   2.014       .  S
O149        C162   1.270       .  A
O149       Co157   1.985       .  S
O150        C163   1.272       .  A
O150       Co158   1.981       .  S
O151        C164   1.293   1_545  A
O151       Co159   2.049       .  S
O152        C164   1.276       .  A
O152       Co157   1.914       .  S
O153        C163   1.282   1_545  A
O153       Co156   2.035       .  S
O154        C161   1.244       .  A
O154       Co159   1.930       .  S
O155        C162   1.270   1_556  A
O155       Co158   2.000       .  S
Co156       O160   1.963   1_545  S
Co157       O160   1.967   1_554  S
Co158       O160   2.010       .  S
Co159       O160   2.083   1_544  S
C161       C1071   1.477       .  S
C162        C980   1.491       .  S
C163       C1300   1.490       .  S
C164       C1011   1.472       .  S
C165        C951   1.482       .  S
C165        N166   1.361       .  A
C165        N170   1.361       .  A
N166        C167   1.359       .  A
C167        C911   1.480       .  S
C167        N168   1.355       .  A
N168        C169   1.353       .  A
C169        C931   1.471       .  S
C169        N170   1.358       .  A
C171       C1440   1.482       .  S
C171        N172   1.361       .  A
C171        N176   1.360       .  A
N172        C173   1.360       .  A
C173        C960   1.483       .  S
C173        N174   1.356       .  A
N174        C175   1.356       .  A
C175       C1000   1.477       .  S
C175        N176   1.359       .  A
C177        C891   1.479       .  S
C177        N178   1.361       .  A
C177        N182   1.364       .  A
N178        C179   1.353       .  A
C179        C940   1.469       .  S
C179        N180   1.350       .  A
N180        C181   1.355       .  A
C181       C1720   1.482       .  S
C181        N182   1.364       .  A
C183        C871   1.475       .  S
C183        N184   1.357       .  A
C183        N188   1.363       .  A
N184        C185   1.353       .  A
C185        C920   1.478       .  S
C185        N186   1.354       .  A
N186        C187   1.357       .  A
C187       C1531   1.481       .  S
C187        N188   1.363       .  A
C189        C831   1.486       .  S
C189        N190   1.359       .  A
C189        N194   1.360       .  A
N190        C191   1.358       .  A
C191        C851   1.476       .  S
C191        N192   1.358       .  A
N192        C193   1.361       .  A
C193        C811   1.486       .  S
C193        N194   1.361       .  A
C195       C1591   1.485       .  S
C195        N196   1.362       .  A
C195        N200   1.360       .  A
N196        C197   1.362       .  A
C197        C791   1.477       .  S
C197        N198   1.359       .  A
N198        C199   1.356       .  A
C199        C860   1.474       .  S
C199        N200   1.357       .  A
C201        C780   1.479       .  S
C201        N202   1.362       .  A
C201        N206   1.358       .  A
N202        C203   1.360       .  A
C203        C840   1.484       .  S
C203        N204   1.356       .  A
N204        C205   1.355       .  A
C205       C1380   1.472       .  S
C205        N206   1.356       .  A
C207       C1740   1.481       .  S
C207        N208   1.359       .  A
C207        N212   1.359       .  A
N208        C209   1.359       .  A
C209       C1020   1.478       .  S
C209        N210   1.359       .  A
N210        C211   1.358       .  A
C211        C820   1.485       .  S
C211        N212   1.359       .  A
O213        C221   1.265       .  A
O213       Co233   2.017       .  S
O214        C222   1.264   1_554  A
O214       Co234   1.983       .  S
O215        C223   1.293   1_655  A
O215       Co235   2.041       .  S
O216        C224   1.268       .  A
O216       Co236   1.969       .  S
O217        C223   1.278       .  A
O217       Co234   1.906       .  S
O218        C224   1.275   1_655  A
O218       Co233   2.007       .  S
O219        C222   1.265       .  A
O219       Co236   2.002       .  S
O220        C221   1.242   1_554  A
O220       Co235   1.954       .  S
C221       C1220   1.487       .  S
C222        C760   1.492       .  S
C223        C720   1.466       .  S
C224        C880   1.471   1_455  S
O225        C238   1.267       .  A
O225       Co233   1.979       .  S
O226        C239   1.265       .  A
O226       Co234   2.013       .  S
O227        C240   1.294   1_554  A
O227       Co235   2.047       .  S
O228        C241   1.272       .  A
O228       Co236   1.983       .  S
O229        C241   1.279   1_554  A
O229       Co234   2.021       .  S
O230        C240   1.279       .  A
O230       Co233   1.915       .  S
O231        C238   1.270   1_455  A
O231       Co236   2.003       .  S
O232        C239   1.244   1_655  A
O232       Co235   1.937       .  S
Co233       O237   1.968   1_655  S
Co234       O237   1.955   1_554  S
Co235       O237   2.083   1_654  S
Co236       O237   2.016       .  S
C238        C691   1.490       .  S
C239        C731   1.479       .  S
C240        C771   1.473       .  S
C241       C1131   1.486       .  S
C242        C660   1.491       .  S
C242        N243   1.368       .  A
C242        N247   1.361       .  A
N243        C244   1.368       .  A
C244       C1691   1.491       .  S
C244        N245   1.358       .  A
N245        C246   1.353       .  A
C246        C680   1.478       .  S
C246        N247   1.354       .  A
C248        C671   1.472       .  S
C248        N249   1.356       .  A
C248        N253   1.358       .  A
N249        C250   1.358       .  A
C250        C611   1.482       .  S
C250        N251   1.359       .  A
N251        C252   1.360       .  A
C252        C631   1.483       .  S
C252        N253   1.360       .  A
C254       C1500   1.486       .  S
C254        N255   1.367       .  A
C254        N259   1.362       .  A
N255        C256   1.364       .  A
C256        C740   1.481       .  S
C256        N257   1.355       .  A
N257        C258   1.350       .  A
C258        C640   1.480       .  S
C258        N259   1.355       .  A
C260       C1331   1.483       .  S
C260        N261   1.358       .  A
C260        N265   1.364       .  A
N261        C262   1.353       .  A
C262        C620   1.479       .  S
C262        N263   1.353       .  A
N263        C264   1.359       .  A
C264       C1051   1.484       .  S
C264        N265   1.366       .  A
C266        C600   1.479       .  S
C266        N267   1.360       .  A
C266        N271   1.356       .  A
N267        C268   1.361       .  A
C268        C551   1.481       .  S
C268        N269   1.358       .  A
N269        C270   1.356       .  A
C270        C571   1.478       .  S
C270        N271   1.355       .  A
C272       C1551   1.487       .  S
C272        N273   1.358       .  A
C272        N277   1.365       .  A
N273        C274   1.356       .  A
C274        C591   1.482       .  S
C274        N275   1.357       .  A
N275        C276   1.359       .  A
C276        C700   1.489       .  S
C276        N277   1.364       .  A
C278       C1080   1.475       .  S
C278        N279   1.361       .  A
C278        N283   1.355       .  A
N279        C280   1.364       .  A
C280       C1351   1.478       .  S
C280        N281   1.359       .  A
N281        C282   1.352       .  A
C282        C580   1.476       .  S
C282        N283   1.351       .  A
C284       C1771   1.484       .  S
C284        N285   1.356       .  A
C284        N289   1.365       .  A
N285        C286   1.353       .  A
C286        C560   1.480       .  S
C286        N287   1.354       .  A
N287        C288   1.360       .  A
C288        C531   1.487       .  S
C288        N289   1.367       .  A
C290        C511   1.470       .  S
C290        N291   1.354       .  A
C290        N295   1.356       .  A
N291        C292   1.356       .  A
C292        C480   1.476       .  S
C292        N293   1.359       .  A
N293        C294   1.359       .  A
C294        C500   1.479       .  S
C294        N295   1.358       .  A
C296       C1791   1.491       .  S
C296        N297   1.359       .  A
C296        N301   1.372       .  A
N297        C298   1.349       .  A
C298        C520   1.466       .  S
C298        N299   1.348       .  A
N299        C300   1.356       .  A
C300        C451   1.493       .  S
C300        N301   1.372       .  A
C302        C711   1.476       .  S
C302        N303   1.358       .  A
C302        N307   1.362       .  A
N303        C304   1.354       .  A
C304        C491   1.478       .  S
C304        N305   1.355       .  A
N305        C306   1.356       .  A
C306       C1511   1.478       .  S
C306        N307   1.360       .  A
C308        C971   1.489       .  S
C308        N309   1.360       .  A
C308        N313   1.369       .  A
N309        C310   1.353       .  A
C310        C471   1.477       .  S
C310        N311   1.350       .  A
N311        C312   1.355       .  A
C312       C1420   1.489       .  S
C312        N313   1.368       .  A
C314        C420   1.484       .  S
C314        N315   1.359       .  A
C314        N319   1.360       .  A
N315        C316   1.358       .  A
C316        C400   1.476       .  S
C316        N317   1.359       .  A
N317        C318   1.360       .  A
C318        C431   1.485       .  S
C318        N319   1.360       .  A
C320       C1760   1.488       .  S
C320        N321   1.367       .  A
C320        N325   1.362       .  A
N321        C322   1.366       .  A
C322       C1040   1.489       .  S
C322        N323   1.359       .  A
N323        C324   1.355       .  A
C324        C440   1.487       .  S
C324        N325   1.357       .  A
C326        C371   1.479       .  S
C326        N327   1.361       .  A
C326        N331   1.355       .  A
N327        C328   1.364       .  A
C328       C1631   1.486       .  S
C328        N329   1.362       .  A
N329        C330   1.358       .  A
C330        C411   1.481       .  S
C330        N331   1.352       .  A
C332       C1451   1.485       .  S
C332        N333   1.358       .  A
C332        N337   1.368       .  A
N333        C334   1.352       .  A
C334        C391   1.473       .  S
C334        N335   1.353       .  A
N335        C336   1.360       .  A
C336        C751   1.493       .  S
C336        N337   1.369       .  A
O338        C346   1.265   1_655  A
O338       Co358   2.013       .  S
O339        C347   1.270       .  A
O339       Co359   1.986       .  S
O340        C348   1.295   1_565  A
O340       Co360   2.046       .  S
O341        C349   1.273   1_545  A
O341       Co361   1.979       .  S
O342        C348   1.278       .  A
O342       Co359   1.917       .  S
O343        C349   1.281       .  A
O343       Co358   2.025       .  S
O344        C347   1.269   1_655  A
O344       Co361   1.995       .  S
O345        C346   1.246       .  A
O345       Co360   1.951       .  S
C346       C1240   1.484       .  S
C347       C1091   1.491       .  S
C348        C900   1.470       .  S
C349        C540   1.485       .  S
O350        C363   1.265       .  A
O350       Co358   1.985       .  S
O351        C364   1.265   1_545  A
O351       Co359   2.013       .  S
O352        C365   1.292   1_455  A
O352       Co360   2.037       .  S
O353        C366   1.264   1_655  A
O353       Co361   1.970       .  S
O354        C366   1.272       .  A
O354       Co359   2.005       .  S
O355        C365   1.280       .  A
O355       Co358   1.913       .  S
O356        C363   1.261   1_545  A
O356       Co361   1.985       .  S
O357        C364   1.245       .  A
O357       Co360   1.958       .  S
Co358       O362   1.959   1_565  S
Co359       O362   1.975   1_455  S
Co360       O362   2.086   1_465  S
Co361       O362   2.012       .  S
C363        C460   1.484       .  S
C364        C651   1.486       .  S
C365        C380   1.470   1_655  S
C366        C800   1.470       .  S
C367        C368   1.408       .  A
C367        C372   1.401       .  A
C367        H377   1.082       .  S
C368        C373   1.484       .  S
C368        C369   1.404       .  A
C369        C370   1.390       .  A
C369        H374   1.083       .  S
C370        C371   1.405       .  A
C370        H375   1.082       .  S
C371        C372   1.404       .  A
C372        H376   1.084       .  S
C373        C378   1.409       .  A
C373        C382   1.404       .  A
C378        C379   1.401   1_455  A
C378        H383   1.082   1_455  S
C379        C380   1.402   1_655  A
C379        H384   1.083       .  S
C380        C381   1.406       .  A
C381        C382   1.386       .  A
C381        H385   1.084       .  S
C382        H386   1.083       .  S
C387        C388   1.410       .  A
C387        C392   1.398       .  A
C387        H397   1.080       .  S
C388        C393   1.496       .  S
C388        C389   1.410       .  A
C389        C390   1.398       .  A
C389        H394   1.083       .  S
C390        C391   1.402       .  A
C390        H395   1.082       .  S
C391        C392   1.401       .  A
C392        H396   1.085       .  S
C393        C398   1.409       .  A
C393        C402   1.410       .  A
C398        C399   1.398       .  A
C398        H403   1.083       .  S
C399        C400   1.403       .  A
C399        H404   1.082       .  S
C400        C401   1.402       .  A
C401        C402   1.398       .  A
C401        H405   1.085       .  S
C402        H406   1.080       .  S
C407        C408   1.407       .  A
C407        C412   1.398       .  A
C407        H417   1.083       .  S
C408        C413   1.485       .  S
C408        C409   1.404       .  A
C409        C410   1.397       .  A
C409        H414   1.083       .  S
C410        C411   1.408       .  A
C410        H415   1.083       .  S
C411        C412   1.404       .  A
C412        H416   1.083       .  S
C413        C418   1.405       .  A
C413        C422   1.405       .  A
C418        C419   1.399       .  A
C418        H423   1.083       .  S
C419        C420   1.407       .  A
C419        H424   1.083       .  S
C420        C421   1.406       .  A
C421        C422   1.397       .  A
C421        H425   1.083       .  S
C422        H426   1.083       .  S
C427        C428   1.405       .  A
C427        C432   1.399       .  A
C427        H437   1.083       .  S
C428        C433   1.486       .  S
C428        C429   1.405       .  A
C429        C430   1.399       .  A
C429        H434   1.083       .  S
C430        C431   1.407       .  A
C430        H435   1.083       .  S
C431        C432   1.407       .  A
C432        H436   1.083       .  S
C433        C438   1.406       .  A
C433        C442   1.404       .  A
C438        C439   1.400       .  A
C438        H443   1.083       .  S
C439        C440   1.407       .  A
C439        H444   1.083       .  S
C440        C441   1.408       .  A
C441        C442   1.398       .  A
C441        H445   1.083       .  S
C442        H446   1.083       .  S
C447        C448   1.401       .  A
C447        C452   1.393       .  A
C447        H457   1.082       .  S
C448        C453   1.495       .  S
C448        C449   1.413       .  A
C449        C450   1.408       .  A
C449        H454   1.083       .  S
C450        C451   1.405       .  A
C450        H455   1.082       .  S
C451        C452   1.411       .  A
C452        H456   1.083       .  S
C453        C458   1.411       .  A
C453        C462   1.405       .  A
C458        C459   1.401       .  A
C458        H463   1.083       .  S
C459        C460   1.403       .  A
C459        H464   1.083       .  S
C460        C461   1.410   1_565  A
C461        C462   1.400   1_545  A
C461        H465   1.084       .  S
C462        H466   1.082   1_565  S
C467        C468   1.402       .  A
C467        C472   1.393       .  A
C467        H477   1.084       .  S
C468        C473   1.475       .  S
C468        C469   1.404       .  A
C469        C470   1.397       .  A
C469        H474   1.082       .  S
C470        C471   1.406       .  A
C470        H475   1.083       .  S
C471        C472   1.406       .  A
C472        H476   1.082       .  S
C473        C478   1.402       .  A
C473        C482   1.404       .  A
C478        C479   1.395       .  A
C478        H483   1.084       .  S
C479        C480   1.407       .  A
C479        H484   1.082       .  S
C480        C481   1.404       .  A
C481        C482   1.395       .  A
C481        H485   1.084       .  S
C482        H486   1.082       .  S
C487        C488   1.403       .  A
C487        C492   1.392       .  A
C487        H497   1.083       .  S
C488        C493   1.476       .  S
C488        C489   1.403       .  A
C489        C490   1.398       .  A
C489        H494   1.083       .  S
C490        C491   1.407       .  A
C490        H495   1.083       .  S
C491        C492   1.405       .  A
C492        H496   1.083       .  S
C493        C498   1.403       .  A
C493        C502   1.402       .  A
C498        C499   1.398       .  A
C498        H503   1.083       .  S
C499        C500   1.407       .  A
C499        H504   1.083       .  S
C500        C501   1.406       .  A
C501        C502   1.394       .  A
C501        H505   1.083       .  S
C502        H506   1.083       .  S
C507        C508   1.407       .  A
C507        C512   1.395       .  A
C507        H517   1.081       .  S
C508        C513   1.486       .  S
C508        C509   1.408       .  A
C509        C510   1.394       .  A
C509        H514   1.083       .  S
C510        C511   1.401       .  A
C510        H515   1.082       .  S
C511        C512   1.403       .  A
C512        H516   1.084       .  S
C513        C518   1.409       .  A
C513        C522   1.407       .  A
C518        C519   1.396       .  A
C518        H523   1.083       .  S
C519        C520   1.401       .  A
C519        H524   1.082       .  S
C520        C521   1.400       .  A
C521        C522   1.394       .  A
C521        H525   1.085       .  S
C522        H526   1.081       .  S
C527        C528   1.404       .  A
C527        C532   1.396       .  A
C527        H537   1.084       .  S
C528        C533   1.492       .  S
C528        C529   1.410       .  A
C529        C530   1.404       .  A
C529        H534   1.082       .  S
C530        C531   1.405       .  A
C530        H535   1.084       .  S
C531        C532   1.408       .  A
C532        H536   1.082       .  S
C533        C538   1.407       .  A
C533        C542   1.407   1_545  A
C538        C539   1.397       .  A
C538        H543   1.082       .  S
C539        C540   1.406   1_545  A
C539        H544   1.084       .  S
C540        C541   1.407       .  A
C541        C542   1.403       .  A
C541        H545   1.082       .  S
C542        H546   1.083       .  S
C547        C548   1.404       .  A
C547        C552   1.395       .  A
C547        H557   1.083       .  S
C548        C553   1.482       .  S
C548        C549   1.405       .  A
C549        C550   1.398       .  A
C549        H554   1.083       .  S
C550        C551   1.406       .  A
C550        H555   1.082       .  S
C551        C552   1.407       .  A
C552        H556   1.083       .  S
C553        C558   1.405       .  A
C553        C562   1.404       .  A
C558        C559   1.398       .  A
C558        H563   1.083       .  S
C559        C560   1.406       .  A
C559        H564   1.083       .  S
C560        C561   1.406       .  A
C561        C562   1.395       .  A
C561        H565   1.083       .  S
C562        H566   1.083       .  S
C567        C568   1.404       .  A
C567        C572   1.396       .  A
C567        H577   1.083       .  S
C568        C573   1.476       .  S
C568        C569   1.403       .  A
C569        C570   1.394       .  A
C569        H574   1.083       .  S
C570        C571   1.406       .  A
C570        H575   1.083       .  S
C571        C572   1.406       .  A
C572        H576   1.083       .  S
C573        C578   1.404       .  A
C573        C582   1.403       .  A
C578        C579   1.396       .  A
C578        H583   1.083       .  S
C579        C580   1.405       .  A
C579        H584   1.083       .  S
C580        C581   1.406       .  A
C581        C582   1.393       .  A
C581        H585   1.083       .  S
C582        H586   1.083       .  S
C587        C588   1.404       .  A
C587        C592   1.395       .  A
C587        H597   1.084       .  S
C588        C593   1.479       .  S
C588        C589   1.403       .  A
C589        C590   1.398       .  A
C589        H594   1.083       .  S
C590        C591   1.408       .  A
C590        H595   1.083       .  S
C591        C592   1.406       .  A
C592        H596   1.082       .  S
C593        C598   1.405       .  A
C593        C602   1.402       .  A
C598        C599   1.399       .  A
C598        H603   1.083       .  S
C599        C600   1.406       .  A
C599        H604   1.083       .  S
C600        C601   1.406       .  A
C601        C602   1.393       .  A
C601        H605   1.083       .  S
C602        H606   1.083       .  S
C607        C608   1.404       .  A
C607        C612   1.396       .  A
C607        H617   1.083       .  S
C608        C613   1.482       .  S
C608        C609   1.405       .  A
C609        C610   1.398       .  A
C609        H614   1.083       .  S
C610        C611   1.407       .  A
C610        H615   1.083       .  S
C611        C612   1.406       .  A
C612        H616   1.083       .  S
C613        C618   1.404       .  A
C613        C622   1.405       .  A
C618        C619   1.397       .  A
C618        H623   1.083       .  S
C619        C620   1.406       .  A
C619        H624   1.083       .  S
C620        C621   1.405       .  A
C621        C622   1.397       .  A
C621        H625   1.083       .  S
C622        H626   1.083       .  S
C627        C628   1.404       .  A
C627        C632   1.397       .  A
C627        H637   1.083       .  S
C628        C633   1.479       .  S
C628        C629   1.403       .  A
C629        C630   1.398       .  A
C629        H634   1.083       .  S
C630        C631   1.407       .  A
C630        H635   1.082       .  S
C631        C632   1.407       .  A
C632        H636   1.083       .  S
C633        C638   1.405       .  A
C633        C642   1.402       .  A
C638        C639   1.399       .  A
C638        H643   1.083       .  S
C639        C640   1.405       .  A
C639        H644   1.083       .  S
C640        C641   1.407       .  A
C641        C642   1.394       .  A
C641        H645   1.083       .  S
C642        H646   1.083       .  S
C647        C648   1.410       .  A
C647        C652   1.398       .  A
C647        H657   1.082       .  S
C648        C653   1.494       .  S
C648        C649   1.405   1_545  A
C649        C650   1.404       .  A
C649        H654   1.083       .  S
C650        C651   1.414       .  A
C650        H655   1.083       .  S
C651        C652   1.399   1_565  A
C652        H656   1.083       .  S
C653        C658   1.403       .  A
C653        C662   1.412       .  A
C658        C659   1.393       .  A
C658        H663   1.083       .  S
C659        C660   1.407       .  A
C659        H664   1.082       .  S
C660        C661   1.408       .  A
C661        C662   1.410       .  A
C661        H665   1.083       .  S
C662        H666   1.083       .  S
C667        C668   1.411       .  A
C667        C672   1.400       .  A
C667        H677   1.081       .  S
C668        C673   1.497       .  S
C668        C669   1.410       .  A
C669        C670   1.396       .  A
C669        H674   1.082       .  S
C670        C671   1.400       .  A
C670        H675   1.083       .  S
C671        C672   1.401       .  A
C672        H676   1.084       .  S
C673        C678   1.410       .  A
C673        C682   1.410       .  A
C678        C679   1.399       .  A
C678        H683   1.082       .  S
C679        C680   1.403       .  A
C679        H684   1.083       .  S
C680        C681   1.402       .  A
C681        C682   1.397       .  A
C681        H685   1.084       .  S
C682        H686   1.081       .  S
C687        C688   1.409       .  A
C687        C692   1.404       .  A
C687        H697   1.084       .  S
C688        C693   1.493       .  S
C688        C689   1.404       .  A
C689        C690   1.398   1_655  A
C689        H694   1.082   1_655  S
C690        C691   1.410   1_455  A
C690        H695   1.084       .  S
C691        C692   1.407       .  A
C692        H696   1.082       .  S
C693        C698   1.404       .  A
C693        C702   1.409       .  A
C698        C699   1.400       .  A
C698        H703   1.082       .  S
C699        C700   1.409       .  A
C699        H704   1.084       .  S
C700        C701   1.406       .  A
C701        C702   1.402       .  A
C701        H705   1.082       .  S
C702        H706   1.084       .  S
C707        C708   1.406       .  A
C707        C712   1.396       .  A
C707        H717   1.083       .  S
C708        C713   1.479   1_655  S
C708        C709   1.404       .  A
C709        C710   1.393       .  A
C709        H714   1.082       .  S
C710        C711   1.405       .  A
C710        H715   1.084       .  S
C711        C712   1.404       .  A
C712        H716   1.082       .  S
C713        C718   1.407       .  A
C713        C722   1.404   1_455  A
C718        C719   1.397       .  A
C718        H723   1.082       .  S
C719        C720   1.400       .  A
C719        H724   1.083       .  S
C720        C721   1.406   1_455  A
C721        C722   1.390       .  A
C721        H725   1.084       .  S
C722        H726   1.083       .  S
C727        C728   1.400   1_655  A
C727        C732   1.395       .  A
C727        H737   1.083       .  S
C728        C733   1.484       .  S
C728        C729   1.410       .  A
C729        C730   1.400       .  A
C729        H734   1.083       .  S
C730        C731   1.400       .  A
C730        H735   1.083       .  S
C731        C732   1.412   1_455  A
C732        H736   1.084       .  S
C733        C738   1.411       .  A
C733        C742   1.400       .  A
C738        C739   1.404       .  A
C738        H743   1.083       .  S
C739        C740   1.405       .  A
C739        H744   1.083       .  S
C740        C741   1.407       .  A
C741        C742   1.391       .  A
C741        H745   1.083       .  S
C742        H746   1.083       .  S
C747        C748   1.411       .  A
C747        C752   1.407       .  A
C747        H757   1.083       .  S
C748        C753   1.497       .  S
C748        C749   1.403       .  A
C749        C750   1.397       .  A
C749        H754   1.082       .  S
C750        C751   1.409       .  A
C750        H755   1.083       .  S
C751        C752   1.407       .  A
C752        H756   1.082       .  S
C753        C758   1.405   1_554  A
C753        C762   1.410       .  A
C758        C759   1.401       .  A
C758        H763   1.083       .  S
C759        C760   1.411       .  A
C759        H764   1.083       .  S
C760        C761   1.405   1_556  A
C761        C762   1.403       .  A
C761        H765   1.083       .  S
C762        H766   1.082       .  S
C767        C768   1.403       .  A
C767        C772   1.386       .  A
C767        H777   1.082       .  S
C768        C773   1.487       .  S
C768        C769   1.411   1_554  A
C769        C770   1.403       .  A
C769        H774   1.082       .  S
C770        C771   1.403       .  A
C770        H775   1.083       .  S
C771        C772   1.405   1_556  A
C772        H776   1.084       .  S
C773        C778   1.408       .  A
C773        C782   1.406       .  A
C778        C779   1.393       .  A
C778        H783   1.082       .  S
C779        C780   1.402       .  A
C779        H784   1.083       .  S
C780        C781   1.407       .  A
C781        C782   1.399       .  A
C781        H785   1.083       .  S
C782        H786   1.083       .  S
C787        C788   1.408       .  A
C787        C792   1.399       .  A
C787        H797   1.083       .  S
C788        C793   1.487       .  S
C788        C789   1.406       .  A
C789        C790   1.396       .  A
C789        H794   1.083       .  S
C790        C791   1.404       .  A
C790        H795   1.083       .  S
C791        C792   1.403       .  A
C792        H796   1.083       .  S
C793        C798   1.408   1_655  A
C793        C802   1.406       .  A
C798        C799   1.399       .  A
C798        H803   1.082       .  S
C799        C800   1.402       .  A
C799        H804   1.083       .  S
C800        C801   1.404   1_455  A
C801        C802   1.392       .  A
C801        H805   1.084       .  S
C802        H806   1.082       .  S
C807        C808   1.404       .  A
C807        C812   1.397       .  A
C807        H817   1.083       .  S
C808        C813   1.482       .  S
C808        C809   1.404       .  A
C809        C810   1.400       .  A
C809        H814   1.083       .  S
C810        C811   1.408       .  A
C810        H815   1.082       .  S
C811        C812   1.407       .  A
C812        H816   1.083       .  S
C813        C818   1.404       .  A
C813        C822   1.404       .  A
C818        C819   1.400       .  A
C818        H823   1.083       .  S
C819        C820   1.408       .  A
C819        H824   1.083       .  S
C820        C821   1.407       .  A
C821        C822   1.397       .  A
C821        H825   1.082       .  S
C822        H826   1.083       .  S
C827        C828   1.406       .  A
C827        C832   1.399       .  A
C827        H837   1.083       .  S
C828        C833   1.486       .  S
C828        C829   1.405       .  A
C829        C830   1.398       .  A
C829        H834   1.083       .  S
C830        C831   1.408       .  A
C830        H835   1.083       .  S
C831        C832   1.406       .  A
C832        H836   1.083       .  S
C833        C838   1.407       .  A
C833        C842   1.404       .  A
C838        C839   1.400       .  A
C838        H843   1.083       .  S
C839        C840   1.406       .  A
C839        H844   1.083       .  S
C840        C841   1.407       .  A
C841        C842   1.396       .  A
C841        H845   1.083       .  S
C842        H846   1.083       .  S
C847        C848   1.410       .  A
C847        C852   1.397       .  A
C847        H857   1.082       .  S
C848        C853   1.498       .  S
C848        C849   1.411       .  A
C849        C850   1.401       .  A
C849        H854   1.081       .  S
C850        C851   1.402       .  A
C850        H855   1.084       .  S
C851        C852   1.401       .  A
C852        H856   1.083       .  S
C853        C858   1.411       .  A
C853        C862   1.411       .  A
C858        C859   1.397       .  A
C858        H863   1.080       .  S
C859        C860   1.400       .  A
C859        H864   1.084       .  S
C860        C861   1.403       .  A
C861        C862   1.401       .  A
C861        H865   1.082       .  S
C862        H866   1.082       .  S
C867        C868   1.403       .  A
C867        C872   1.392       .  A
C867        H877   1.083       .  S
C868        C873   1.481       .  S
C868        C869   1.408       .  A
C869        C870   1.400       .  A
C869        H874   1.083       .  S
C870        C871   1.403       .  A
C870        H875   1.083       .  S
C871        C872   1.405       .  A
C872        H876   1.083       .  S
C873        C878   1.405       .  A
C873        C882   1.406   1_455  A
C878        C879   1.390       .  A
C878        H883   1.083       .  S
C879        C880   1.404   1_455  A
C879        H884   1.083       .  S
C880        C881   1.404       .  A
C881        C882   1.399       .  A
C881        H885   1.083       .  S
C882        H886   1.082       .  S
C887        C888   1.408       .  A
C887        C892   1.404       .  A
C887        H897   1.083       .  S
C888        C893   1.485       .  S
C888        C889   1.404       .  A
C889        C890   1.390       .  A
C889        H894   1.083       .  S
C890        C891   1.404       .  A
C890        H895   1.083       .  S
C891        C892   1.406       .  A
C892        H896   1.083       .  S
C893        C898   1.409   1_565  A
C893        C902   1.404       .  A
C898        C899   1.404       .  A
C898        H903   1.083       .  S
C899        C900   1.404       .  A
C899        H904   1.083       .  S
C900        C901   1.402   1_545  A
C901        C902   1.387       .  A
C901        H905   1.084       .  S
C902        H906   1.083       .  S
C907        C908   1.402       .  A
C907        C912   1.392       .  A
C907        H917   1.083       .  S
C908        C913   1.479       .  S
C908        C909   1.405       .  A
C909        C910   1.400       .  A
C909        H914   1.083       .  S
C910        C911   1.406       .  A
C910        H915   1.082       .  S
C911        C912   1.406       .  A
C912        H916   1.083       .  S
C913        C918   1.404       .  A
C913        C922   1.404       .  A
C918        C919   1.398       .  A
C918        H923   1.083       .  S
C919        C920   1.407       .  A
C919        H924   1.083       .  S
C920        C921   1.405       .  A
C921        C922   1.393       .  A
C921        H925   1.082       .  S
C922        H926   1.083       .  S
C927        C928   1.411       .  A
C927        C932   1.397       .  A
C927        H937   1.081       .  S
C928        C933   1.492       .  S
C928        C929   1.408       .  A
C929        C930   1.396       .  A
C929        H934   1.082       .  S
C930        C931   1.402       .  A
C930        H935   1.083       .  S
C931        C932   1.400       .  A
C932        H936   1.084       .  S
C933        C938   1.407       .  A
C933        C942   1.412       .  A
C938        C939   1.394       .  A
C938        H943   1.082       .  S
C939        C940   1.401       .  A
C939        H944   1.083       .  S
C940        C941   1.400       .  A
C941        C942   1.399       .  A
C941        H945   1.084       .  S
C942        H946   1.081       .  S
C947        C948   1.405       .  A
C947        C952   1.397       .  A
C947        H957   1.083       .  S
C948        C953   1.482       .  S
C948        C949   1.404       .  A
C949        C950   1.398       .  A
C949        H954   1.083       .  S
C950        C951   1.407       .  A
C950        H955   1.083       .  S
C951        C952   1.406       .  A
C952        H956   1.083       .  S
C953        C958   1.405       .  A
C953        C962   1.403       .  A
C958        C959   1.399       .  A
C958        H963   1.083       .  S
C959        C960   1.406       .  A
C959        H964   1.083       .  S
C960        C961   1.408       .  A
C961        C962   1.396       .  A
C961        H965   1.083       .  S
C962        H966   1.083       .  S
C967        C968   1.411       .  A
C967        C972   1.405       .  A
C967        H977   1.083       .  S
C968        C973   1.493       .  S
C968        C969   1.402       .  A
C969        C970   1.397       .  A
C969        H974   1.083       .  S
C970        C971   1.409       .  A
C970        H975   1.083       .  S
C971        C972   1.405       .  A
C972        H976   1.083       .  S
C973        C978   1.403       .  A
C973        C982   1.410       .  A
C978        C979   1.398       .  A
C978        H983   1.083       .  S
C979        C980   1.411       .  A
C979        H984   1.083   1_554  S
C980        C981   1.405       .  A
C981        C982   1.405       .  A
C981        H985   1.083       .  S
C982        H986   1.083       .  S
C987        C988   1.405       .  A
C987        C992   1.396       .  A
C987        H997   1.082       .  S
C988        C993   1.479   1_554  S
C988        C989   1.405   1_554  A
C989        C990   1.392       .  A
C989        H994   1.084       .  S
C990        C991   1.404   1_556  A
C990        H995   1.083       .  S
C991        C992   1.404       .  A
C992        H996   1.084       .  S
C993        C998   1.406       .  A
C993       C1002   1.403       .  A
C998        C999   1.396       .  A
C998       H1003   1.084   1_556  S
C999       C1000   1.405       .  A
C999       H1004   1.082       .  S
C1000      C1001   1.406       .  A
C1001      C1002   1.394       .  A
C1001      H1005   1.084       .  S
C1002      H1006   1.082       .  S
C1007      C1008   1.404       .  A
C1007      C1012   1.389       .  A
C1007      H1017   1.082       .  S
C1008      C1013   1.486       .  S
C1008      C1009   1.410   1_545  A
C1009      C1010   1.402       .  A
C1009      H1014   1.083       .  S
C1010      C1011   1.403       .  A
C1010      H1015   1.083       .  S
C1011      C1012   1.404   1_565  A
C1012      H1016   1.084       .  S
C1013      C1018   1.407       .  A
C1013      C1022   1.406       .  A
C1018      C1019   1.395       .  A
C1018      H1023   1.083       .  S
C1019      C1020   1.403       .  A
C1019      H1024   1.083       .  S
C1020      C1021   1.405       .  A
C1021      C1022   1.398       .  A
C1021      H1025   1.083       .  S
C1022      H1026   1.082       .  S
C1027      C1028   1.410       .  A
C1027      C1032   1.397       .  A
C1027      H1037   1.081       .  S
C1028      C1033   1.496       .  S
C1028      C1029   1.406   1_565  A
C1029      C1030   1.403       .  A
C1029      H1034   1.083       .  S
C1030      C1031   1.413       .  A
C1030      H1035   1.083       .  S
C1031      C1032   1.398   1_545  A
C1032      H1036   1.083       .  S
C1033      C1038   1.404       .  A
C1033      C1042   1.412       .  A
C1038      C1039   1.393       .  A
C1038      H1043   1.082       .  S
C1039      C1040   1.406       .  A
C1039      H1044   1.083       .  S
C1040      C1041   1.407       .  A
C1041      C1042   1.408       .  A
C1041      H1045   1.083       .  S
C1042      H1046   1.083       .  S
C1047      C1048   1.405       .  A
C1047      C1052   1.393       .  A
C1047      H1057   1.083       .  S
C1048      C1053   1.487       .  S
C1048      C1049   1.408       .  A
C1049      C1050   1.402       .  A
C1049      H1054   1.082       .  S
C1050      C1051   1.405       .  A
C1050      H1055   1.083       .  S
C1051      C1052   1.407       .  A
C1052      H1056   1.083       .  S
C1053      C1058   1.404       .  A
C1053      C1062   1.409   1_554  A
C1058      C1059   1.389       .  A
C1058      H1063   1.083       .  S
C1059      C1060   1.407   1_554  A
C1059      H1064   1.084       .  S
C1060      C1061   1.402       .  A
C1061      C1062   1.403       .  A
C1061      H1065   1.083       .  S
C1062      H1066   1.082       .  S
C1067      C1068   1.409       .  A
C1067      C1072   1.397       .  A
C1067      H1077   1.082       .  S
C1068      C1073   1.480       .  S
C1068      C1069   1.399   1_556  A
C1069      C1070   1.395       .  A
C1069      H1074   1.084       .  S
C1070      C1071   1.413       .  A
C1070      H1075   1.083       .  S
C1071      C1072   1.399   1_554  A
C1072      H1076   1.083       .  S
C1073      C1078   1.399       .  A
C1073      C1082   1.410       .  A
C1078      C1079   1.389       .  A
C1078      H1083   1.084       .  S
C1079      C1080   1.405       .  A
C1079      H1084   1.082       .  S
C1080      C1081   1.404       .  A
C1081      C1082   1.402       .  A
C1081      H1085   1.084       .  S
C1082      H1086   1.082   1_556  S
C1087      C1088   1.402       .  A
C1087      C1092   1.399       .  A
C1087      H1097   1.083   1_455  S
C1088      C1093   1.493       .  S
C1088      C1089   1.410       .  A
C1089      C1090   1.405       .  A
C1089      H1094   1.083       .  S
C1090      C1091   1.406       .  A
C1090      H1095   1.083       .  S
C1091      C1092   1.411       .  A
C1092      H1096   1.083   1_455  S
C1093      C1098   1.411       .  A
C1093      C1102   1.402       .  A
C1098      C1099   1.406       .  A
C1098      H1103   1.083       .  S
C1099      C1100   1.406       .  A
C1099      H1104   1.082       .  S
C1100      C1101   1.411       .  A
C1101      C1102   1.396       .  A
C1101      H1105   1.083       .  S
C1102      H1106   1.083       .  S
C1107      C1108   1.405       .  A
C1107      C1112   1.400   1_545  A
C1107      H1117   1.083   1_545  S
C1108      C1113   1.497       .  S
C1108      C1109   1.411       .  A
C1109      C1110   1.403       .  A
C1109      H1114   1.082       .  S
C1110      C1111   1.405       .  A
C1110      H1115   1.083       .  S
C1111      C1112   1.411   1_545  A
C1112      H1116   1.083       .  S
C1113      C1118   1.412       .  A
C1113      C1122   1.403       .  A
C1118      C1119   1.407       .  A
C1118      H1123   1.083       .  S
C1119      C1120   1.406       .  A
C1119      H1124   1.083       .  S
C1120      C1121   1.410       .  A
C1121      C1122   1.397       .  A
C1121      H1125   1.083       .  S
C1122      H1126   1.083       .  S
C1127      C1128   1.409       .  A
C1127      C1132   1.398       .  A
C1127      H1137   1.082       .  S
C1128      C1133   1.496       .  S
C1128      C1129   1.408       .  A
C1129      C1130   1.403   1_556  A
C1129      H1134   1.083   1_556  S
C1130      C1131   1.407   1_554  A
C1130      H1135   1.082       .  S
C1131      C1132   1.405       .  A
C1132      H1136   1.084       .  S
C1133      C1138   1.406       .  A
C1133      C1142   1.411       .  A
C1138      C1139   1.397       .  A
C1138      H1143   1.083       .  S
C1139      C1140   1.406       .  A
C1139      H1144   1.083       .  S
C1140      C1141   1.404       .  A
C1141      C1142   1.403       .  A
C1141      H1145   1.083       .  S
C1142      H1146   1.082       .  S
C1147      C1148   1.403       .  A
C1147      C1152   1.395       .  A
C1147      H1157   1.083       .  S
C1148      C1153   1.481       .  S
C1148      C1149   1.405       .  A
C1149      C1150   1.399       .  A
C1149      H1154   1.083       .  S
C1150      C1151   1.406       .  A
C1150      H1155   1.083       .  S
C1151      C1152   1.406       .  A
C1152      H1156   1.082       .  S
C1153      C1158   1.404       .  A
C1153      C1162   1.405       .  A
C1158      C1159   1.397       .  A
C1158      H1163   1.083       .  S
C1159      C1160   1.407       .  A
C1159      H1164   1.082       .  S
C1160      C1161   1.406       .  A
C1161      C1162   1.396       .  A
C1161      H1165   1.083       .  S
C1162      H1166   1.083       .  S
C1167      C1168   1.405       .  A
C1167      C1172   1.395       .  A
C1167      H1177   1.083       .  S
C1168      C1173   1.480       .  S
C1168      C1169   1.403       .  A
C1169      C1170   1.397       .  A
C1169      H1174   1.083       .  S
C1170      C1171   1.408       .  A
C1170      H1175   1.083       .  S
C1171      C1172   1.405       .  A
C1172      H1176   1.083       .  S
C1173      C1178   1.406       .  A
C1173      C1182   1.402       .  A
C1178      C1179   1.399       .  A
C1178      H1183   1.083       .  S
C1179      C1180   1.406       .  A
C1179      H1184   1.083       .  S
C1180      C1181   1.407       .  A
C1181      C1182   1.392       .  A
C1181      H1185   1.083       .  S
C1182      H1186   1.083       .  S
C1187      C1188   1.405       .  A
C1187      C1192   1.398       .  A
C1187      H1197   1.083       .  S
C1188      C1193   1.479       .  S
C1188      C1189   1.403       .  A
C1189      C1190   1.393       .  A
C1189      H1194   1.083       .  S
C1190      C1191   1.406       .  A
C1190      H1195   1.083       .  S
C1191      C1192   1.406       .  A
C1192      H1196   1.083       .  S
C1193      C1198   1.403       .  A
C1193      C1202   1.405       .  A
C1198      C1199   1.393       .  A
C1198      H1203   1.084       .  S
C1199      C1200   1.407       .  A
C1199      H1204   1.082       .  S
C1200      C1201   1.405       .  A
C1201      C1202   1.398       .  A
C1201      H1205   1.083       .  S
C1202      H1206   1.082       .  S
C1207      C1208   1.403       .  A
C1207      C1212   1.394       .  A
C1207      H1217   1.082       .  S
C1208      C1213   1.497       .  S
C1208      C1209   1.412       .  A
C1209      C1210   1.411       .  A
C1209      H1214   1.083       .  S
C1210      C1211   1.409       .  A
C1210      H1215   1.083       .  S
C1211      C1212   1.405       .  A
C1212      H1216   1.083       .  S
C1213      C1218   1.411       .  A
C1213      C1222   1.405       .  A
C1218      C1219   1.399       .  A
C1218      H1223   1.082       .  S
C1219      C1220   1.398       .  A
C1219      H1224   1.082       .  S
C1220      C1221   1.415   1_556  A
C1221      C1222   1.405   1_554  A
C1221      H1225   1.084       .  S
C1222      H1226   1.083   1_556  S
C1227      C1228   1.412       .  A
C1227      C1232   1.407       .  A
C1227      H1237   1.082       .  S
C1228      C1233   1.493       .  S
C1228      C1229   1.403       .  A
C1229      C1230   1.396       .  A
C1229      H1234   1.083       .  S
C1230      C1231   1.407       .  A
C1230      H1235   1.082       .  S
C1231      C1232   1.407       .  A
C1232      H1236   1.083       .  S
C1233      C1238   1.404   1_655  A
C1233      C1242   1.411       .  A
C1238      C1239   1.400       .  A
C1238      H1243   1.083       .  S
C1239      C1240   1.412       .  A
C1239      H1244   1.083       .  S
C1240      C1241   1.400   1_455  A
C1241      C1242   1.402       .  A
C1241      H1245   1.083       .  S
C1242      H1246   1.082       .  S
C1247      C1248   1.412       .  A
C1247      C1252   1.400       .  A
C1247      H1257   1.081       .  S
C1248      C1253   1.504       .  S
C1248      C1249   1.412       .  A
C1249      C1250   1.401       .  A
C1249      H1254   1.081       .  S
C1250      C1251   1.402       .  A
C1250      H1255   1.084       .  S
C1251      C1252   1.401       .  A
C1252      H1256   1.083       .  S
C1253      C1258   1.412       .  A
C1253      C1262   1.411       .  A
C1258      C1259   1.400       .  A
C1258      H1263   1.080       .  S
C1259      C1260   1.402       .  A
C1259      H1264   1.084       .  S
C1260      C1261   1.404       .  A
C1261      C1262   1.401       .  A
C1261      H1265   1.083       .  S
C1262      H1266   1.082       .  S
C1267      C1268   1.407       .  A
C1267      C1272   1.401       .  A
C1267      H1277   1.083       .  S
C1268      C1273   1.492       .  S
C1268      C1269   1.407       .  A
C1269      C1270   1.400       .  A
C1269      H1274   1.083       .  S
C1270      C1271   1.407       .  A
C1270      H1275   1.083       .  S
C1271      C1272   1.407       .  A
C1272      H1276   1.083       .  S
C1273      C1278   1.407       .  A
C1273      C1282   1.406       .  A
C1278      C1279   1.400       .  A
C1278      H1283   1.083       .  S
C1279      C1280   1.407       .  A
C1279      H1284   1.083       .  S
C1280      C1281   1.407       .  A
C1281      C1282   1.400       .  A
C1281      H1285   1.083       .  S
C1282      H1286   1.082       .  S
C1287      C1288   1.411       .  A
C1287      C1292   1.407       .  A
C1287      H1297   1.082       .  S
C1288      C1293   1.501       .  S
C1288      C1289   1.407       .  A
C1289      C1290   1.400       .  A
C1289      H1294   1.083       .  S
C1290      C1291   1.408       .  A
C1290      H1295   1.082       .  S
C1291      C1292   1.407       .  A
C1292      H1296   1.084       .  S
C1293      C1298   1.410       .  A
C1293      C1302   1.409       .  A
C1298      C1299   1.407   1_565  A
C1298      H1303   1.083   1_565  S
C1299      C1300   1.407   1_545  A
C1299      H1304   1.082       .  S
C1300      C1301   1.407       .  A
C1301      C1302   1.400       .  A
C1301      H1305   1.084       .  S
C1302      H1306   1.082       .  S
C1307      C1308   1.406       .  A
C1307      C1312   1.401       .  A
C1307      H1317   1.083       .  S
C1308      C1313   1.492       .  S
C1308      C1309   1.407       .  A
C1309      C1310   1.401       .  A
C1309      H1314   1.083       .  S
C1310      C1311   1.407       .  A
C1310      H1315   1.083       .  S
C1311      C1312   1.408       .  A
C1312      H1316   1.083       .  S
C1313      C1318   1.406       .  A
C1313      C1322   1.407       .  A
C1318      C1319   1.400       .  A
C1318      H1323   1.083       .  S
C1319      C1320   1.407       .  A
C1319      H1324   1.083       .  S
C1320      C1321   1.408       .  A
C1321      C1322   1.402       .  A
C1321      H1325   1.083       .  S
C1322      H1326   1.083       .  S
C1327      C1328   1.402       .  A
C1327      C1332   1.392       .  A
C1327      H1337   1.082       .  S
C1328      C1333   1.491       .  S
C1328      C1329   1.411       .  A
C1329      C1330   1.407       .  A
C1329      H1334   1.083       .  S
C1330      C1331   1.406       .  A
C1330      H1335   1.082       .  S
C1331      C1332   1.405       .  A
C1332      H1336   1.084       .  S
C1333      C1338   1.410       .  A
C1333      C1342   1.403       .  A
C1338      C1339   1.398       .  A
C1338      H1343   1.082       .  S
C1339      C1340   1.398       .  A
C1339      H1344   1.083       .  S
C1340      C1341   1.415       .  A
C1341      C1342   1.401       .  A
C1341      H1345   1.084       .  S
C1342      H1346   1.083       .  S
C1347      C1348   1.403       .  A
C1347      C1352   1.390       .  A
C1347      H1357   1.083       .  S
C1348      C1353   1.479       .  S
C1348      C1349   1.406       .  A
C1349      C1350   1.399       .  A
C1349      H1354   1.083       .  S
C1350      C1351   1.405       .  A
C1350      H1355   1.082       .  S
C1351      C1352   1.406       .  A
C1352      H1356   1.083       .  S
C1353      C1358   1.403       .  A
C1353      C1362   1.406       .  A
C1358      C1359   1.388       .  A
C1358      H1363   1.083       .  S
C1359      C1360   1.404       .  A
C1359      H1364   1.083       .  S
C1360      C1361   1.403       .  A
C1361      C1362   1.400       .  A
C1361      H1365   1.083   1_556  S
C1362      H1366   1.082       .  S
C1367      C1368   1.407       .  A
C1367      C1372   1.393       .  A
C1367      H1377   1.082       .  S
C1368      C1373   1.484       .  S
C1368      C1369   1.408       .  A
C1369      C1370   1.395       .  A
C1369      H1374   1.083       .  S
C1370      C1371   1.398       .  A
C1370      H1375   1.083       .  S
C1371      C1372   1.403       .  A
C1372      H1376   1.085       .  S
C1373      C1378   1.407       .  A
C1373      C1382   1.407       .  A
C1378      C1379   1.395       .  A
C1378      H1383   1.081       .  S
C1379      C1380   1.402       .  A
C1379      H1384   1.084       .  S
C1380      C1381   1.403       .  A
C1381      C1382   1.393       .  A
C1381      H1385   1.082       .  S
C1382      H1386   1.083       .  S
C1387      C1388   1.411       .  A
C1387      C1392   1.403       .  A
C1387      H1397   1.082       .  S
C1388      C1393   1.491       .  S
C1388      C1389   1.402       .  A
C1389      C1390   1.399       .  A
C1389      H1394   1.083       .  S
C1390      C1391   1.414       .  A
C1390      H1395   1.083       .  S
C1391      C1392   1.401       .  A
C1392      H1396   1.083       .  S
C1393      C1398   1.401       .  A
C1393      C1402   1.411       .  A
C1398      C1399   1.394       .  A
C1398      H1403   1.083       .  S
C1399      C1400   1.407       .  A
C1399      H1404   1.083       .  S
C1400      C1401   1.407       .  A
C1401      C1402   1.407       .  A
C1401      H1405   1.083       .  S
C1402      H1406   1.083       .  S
C1407      C1408   1.403       .  A
C1407      C1412   1.398       .  A
C1407      H1417   1.084       .  S
C1408      C1413   1.489       .  S
C1408      C1409   1.409       .  A
C1409      C1410   1.400       .  A
C1409      H1414   1.082       .  S
C1410      C1411   1.404       .  A
C1410      H1415   1.084       .  S
C1411      C1412   1.409       .  A
C1412      H1416   1.082       .  S
C1413      C1418   1.411       .  A
C1413      C1422   1.401       .  A
C1418      C1419   1.405       .  A
C1418      H1423   1.083       .  S
C1419      C1420   1.405       .  A
C1419      H1424   1.083       .  S
C1420      C1421   1.411       .  A
C1421      C1422   1.394       .  A
C1421      H1425   1.083       .  S
C1422      H1426   1.083       .  S
C1427      C1428   1.406       .  A
C1427      C1432   1.394       .  A
C1427      H1437   1.082       .  S
C1428      C1433   1.494       .  S
C1428      C1429   1.411       .  A
C1429      C1430   1.404       .  A
C1429      H1434   1.082       .  S
C1430      C1431   1.404       .  A
C1430      H1435   1.083       .  S
C1431      C1432   1.407       .  A
C1432      H1436   1.083       .  S
C1433      C1438   1.409       .  A
C1433      C1442   1.408       .  A
C1438      C1439   1.399       .  A
C1438      H1443   1.082       .  S
C1439      C1440   1.405       .  A
C1439      H1444   1.083       .  S
C1440      C1441   1.405       .  A
C1441      C1442   1.399       .  A
C1441      H1445   1.083       .  S
C1442      H1446   1.082       .  S
C1447      C1448   1.404       .  A
C1447      C1452   1.394       .  A
C1447      H1457   1.083       .  S
C1448      C1453   1.493       .  S
C1448      C1449   1.411       .  A
C1449      C1450   1.406       .  A
C1449      H1454   1.082       .  S
C1450      C1451   1.405       .  A
C1450      H1455   1.083       .  S
C1451      C1452   1.406       .  A
C1452      H1456   1.083       .  S
C1453      C1458   1.408       .  A
C1453      C1462   1.408       .  A
C1458      C1459   1.394       .  A
C1458      H1463   1.082       .  S
C1459      C1460   1.404       .  A
C1459      H1464   1.084       .  S
C1460      C1461   1.406       .  A
C1461      C1462   1.403       .  A
C1461      H1465   1.083       .  S
C1462      H1466   1.083       .  S
C1467      C1468   1.409       .  A
C1467      C1472   1.404       .  A
C1467      H1477   1.082       .  S
C1468      C1473   1.482       .  S
C1468      C1469   1.398       .  A
C1469      C1470   1.393       .  A
C1469      H1474   1.084       .  S
C1470      C1471   1.412       .  A
C1470      H1475   1.082       .  S
C1471      C1472   1.405       .  A
C1472      H1476   1.084       .  S
C1473      C1478   1.399       .  A
C1473      C1482   1.409       .  A
C1478      C1479   1.395       .  A
C1478      H1483   1.084       .  S
C1479      C1480   1.411       .  A
C1479      H1484   1.082       .  S
C1480      C1481   1.405       .  A
C1481      C1482   1.403       .  A
C1481      H1485   1.083       .  S
C1482      H1486   1.083       .  S
C1487      C1488   1.406       .  A
C1487      C1492   1.396       .  A
C1487      H1497   1.083       .  S
C1488      C1493   1.487       .  S
C1488      C1489   1.406       .  A
C1489      C1490   1.402       .  A
C1489      H1494   1.083       .  S
C1490      C1491   1.407       .  A
C1490      H1495   1.083       .  S
C1491      C1492   1.404       .  A
C1492      H1496   1.083       .  S
C1493      C1498   1.403       .  A
C1493      C1502   1.408       .  A
C1498      C1499   1.395       .  A
C1498      H1503   1.083       .  S
C1499      C1500   1.407       .  A
C1499      H1504   1.083       .  S
C1500      C1501   1.407       .  A
C1501      C1502   1.404       .  A
C1501      H1505   1.083       .  S
C1502      H1506   1.082       .  S
C1507      C1508   1.404       .  A
C1507      C1512   1.394       .  A
C1507      H1517   1.083       .  S
C1508      C1513   1.486       .  S
C1508      C1509   1.408       .  A
C1509      C1510   1.400       .  A
C1509      H1514   1.082       .  S
C1510      C1511   1.404       .  A
C1510      H1515   1.083       .  S
C1511      C1512   1.405       .  A
C1512      H1516   1.083       .  S
C1513      C1518   1.407       .  A
C1513      C1522   1.405       .  A
C1518      C1519   1.396       .  A
C1518      H1523   1.082       .  S
C1519      C1520   1.403       .  A
C1519      H1524   1.084       .  S
C1520      C1521   1.406       .  A
C1521      C1522   1.399       .  A
C1521      H1525   1.083       .  S
C1522      H1526   1.083       .  S
C1527      C1528   1.408       .  A
C1527      C1532   1.402       .  A
C1527      H1537   1.084       .  S
C1528      C1533   1.484       .  S
C1528      C1529   1.403       .  A
C1529      C1530   1.394       .  A
C1529      H1534   1.082       .  S
C1530      C1531   1.407       .  A
C1530      H1535   1.083       .  S
C1531      C1532   1.405       .  A
C1532      H1536   1.082       .  S
C1533      C1538   1.407       .  A
C1533      C1542   1.405       .  A
C1538      C1539   1.402       .  A
C1538      H1543   1.082       .  S
C1539      C1540   1.402       .  A
C1539      H1544   1.084       .  S
C1540      C1541   1.402       .  A
C1541      C1542   1.394       .  A
C1541      H1545   1.083       .  S
C1542      H1546   1.084       .  S
C1547      C1548   1.407       .  A
C1547      C1552   1.400       .  A
C1547      H1557   1.083       .  S
C1548      C1553   1.483       .  S
C1548      C1549   1.401       .  A
C1549      C1550   1.400       .  A
C1549      H1554   1.083       .  S
C1550      C1551   1.410       .  A
C1550      H1555   1.083       .  S
C1551      C1552   1.405       .  A
C1552      H1556   1.083       .  S
C1553      C1558   1.409       .  A
C1553      C1562   1.398       .  A
C1558      C1559   1.409       .  A
C1558      H1563   1.083       .  S
C1559      C1560   1.407       .  A
C1559      H1564   1.083       .  S
C1560      C1561   1.410       .  A
C1561      C1562   1.390       .  A
C1561      H1565   1.083       .  S
C1562      H1566   1.084       .  S
C1567      C1568   1.405       .  A
C1567      C1572   1.401       .  A
C1567      H1577   1.083       .  S
C1568      C1573   1.495       .  S
C1568      C1569   1.410       .  A
C1569      C1570   1.401       .  A
C1569      H1574   1.083       .  S
C1570      C1571   1.405       .  A
C1570      H1575   1.083       .  S
C1571      C1572   1.409       .  A
C1572      H1576   1.083       .  S
C1573      C1578   1.411       .  A
C1573      C1582   1.404       .  A
C1578      C1579   1.406       .  A
C1578      H1583   1.083       .  S
C1579      C1580   1.405       .  A
C1579      H1584   1.083       .  S
C1580      C1581   1.407       .  A
C1581      C1582   1.397       .  A
C1581      H1585   1.083       .  S
C1582      H1586   1.083       .  S
C1587      C1588   1.406       .  A
C1587      C1592   1.397       .  A
C1587      H1597   1.082       .  S
C1588      C1593   1.495       .  S
C1588      C1589   1.410       .  A
C1589      C1590   1.402       .  A
C1589      H1594   1.083       .  S
C1590      C1591   1.406       .  A
C1590      H1595   1.082       .  S
C1591      C1592   1.405       .  A
C1592      H1596   1.084       .  S
C1593      C1598   1.408       .  A
C1593      C1602   1.407       .  A
C1598      C1599   1.399       .  A
C1598      H1603   1.083       .  S
C1599      C1600   1.406       .  A
C1599      H1604   1.082       .  S
C1600      C1601   1.408       .  A
C1601      C1602   1.401       .  A
C1601      H1605   1.084       .  S
C1602      H1606   1.082       .  S
C1607      C1608   1.412       .  A
C1607      C1612   1.407       .  A
C1607      H1617   1.082       .  S
C1608      C1613   1.497       .  S
C1608      C1609   1.404       .  A
C1609      C1610   1.397       .  A
C1609      H1614   1.083       .  S
C1610      C1611   1.407       .  A
C1610      H1615   1.083       .  S
C1611      C1612   1.405       .  A
C1612      H1616   1.084       .  S
C1613      C1618   1.405       .  A
C1613      C1622   1.410       .  A
C1618      C1619   1.402       .  A
C1618      H1623   1.084       .  S
C1619      C1620   1.410       .  A
C1619      H1624   1.082       .  S
C1620      C1621   1.404       .  A
C1621      C1622   1.401       .  A
C1621      H1625   1.084       .  S
C1622      H1626   1.081       .  S
C1627      C1628   1.406       .  A
C1627      C1632   1.398       .  A
C1627      H1637   1.083       .  S
C1628      C1633   1.495       .  S
C1628      C1629   1.410       .  A
C1629      C1630   1.401       .  A
C1629      H1634   1.082       .  S
C1630      C1631   1.406       .  A
C1630      H1635   1.084       .  S
C1631      C1632   1.406       .  A
C1632      H1636   1.082       .  S
C1633      C1638   1.409       .  A
C1633      C1642   1.407       .  A
C1638      C1639   1.399       .  A
C1638      H1643   1.082       .  S
C1639      C1640   1.405       .  A
C1639      H1644   1.083       .  S
C1640      C1641   1.407       .  A
C1641      C1642   1.400       .  A
C1641      H1645   1.083       .  S
C1642      H1646   1.083       .  S
C1647      C1648   1.404       .  A
C1647      C1652   1.399       .  A
C1647      H1657   1.083       .  S
C1648      C1653   1.492       .  S
C1648      C1649   1.410       .  A
C1649      C1650   1.401       .  A
C1649      H1654   1.082       .  S
C1650      C1651   1.404       .  A
C1650      H1655   1.083       .  S
C1651      C1652   1.409       .  A
C1652      H1656   1.083       .  S
C1653      C1658   1.412       .  A
C1653      C1662   1.403       .  A
C1658      C1659   1.405       .  A
C1658      H1663   1.082       .  S
C1659      C1660   1.403       .  A
C1659      H1664   1.083       .  S
C1660      C1661   1.407       .  A
C1661      C1662   1.395       .  A
C1661      H1665   1.083       .  S
C1662      H1666   1.083       .  S
C1667      C1668   1.406       .  A
C1667      C1672   1.398       .  A
C1667      H1677   1.082       .  S
C1668      C1673   1.499       .  S
C1668      C1669   1.411       .  A
C1669      C1670   1.407       .  A
C1669      H1674   1.083       .  S
C1670      C1671   1.407       .  A
C1670      H1675   1.082       .  S
C1671      C1672   1.408       .  A
C1672      H1676   1.083       .  S
C1673      C1678   1.409       .  A
C1673      C1682   1.408       .  A
C1678      C1679   1.400       .  A
C1678      H1683   1.082       .  S
C1679      C1680   1.405       .  A
C1679      H1684   1.083       .  S
C1680      C1681   1.409       .  A
C1681      C1682   1.404       .  A
C1681      H1685   1.083       .  S
C1682      H1686   1.082       .  S
C1687      C1688   1.408       .  A
C1687      C1692   1.406       .  A
C1687      H1697   1.083       .  S
C1688      C1693   1.486       .  S
C1688      C1689   1.401       .  A
C1689      C1690   1.395       .  A
C1689      H1694   1.083       .  S
C1690      C1691   1.410       .  A
C1690      H1695   1.083       .  S
C1691      C1692   1.407       .  A
C1692      H1696   1.082       .  S
C1693      C1698   1.407       .  A
C1693      C1702   1.405       .  A
C1698      C1699   1.404       .  A
C1698      H1703   1.082       .  S
C1699      C1700   1.404       .  A
C1699      H1704   1.084       .  S
C1700      C1701   1.403       .  A
C1701      C1702   1.397       .  A
C1701      H1705   1.082       .  S
C1702      H1706   1.084       .  S
C1707      C1708   1.405       .  A
C1707      C1712   1.400       .  A
C1707      H1717   1.084       .  S
C1708      C1713   1.479       .  S
C1708      C1709   1.405       .  A
C1709      C1710   1.393       .  A
C1709      H1714   1.082       .  S
C1710      C1711   1.400       .  A
C1710      H1715   1.085       .  S
C1711      C1712   1.404       .  A
C1712      H1716   1.083       .  S
C1713      C1718   1.407       .  A
C1713      C1722   1.399       .  A
C1718      C1719   1.402       .  A
C1718      H1723   1.082       .  S
C1719      C1720   1.405       .  A
C1719      H1724   1.083       .  S
C1720      C1721   1.409       .  A
C1721      C1722   1.391       .  A
C1721      H1725   1.082       .  S
C1722      H1726   1.084       .  S
C1727      C1728   1.407       .  A
C1727      C1732   1.398       .  A
C1727      H1737   1.083       .  S
C1728      C1733   1.489       .  S
C1728      C1729   1.407       .  A
C1729      C1730   1.396       .  A
C1729      H1734   1.082       .  S
C1730      C1731   1.405       .  A
C1730      H1735   1.083       .  S
C1731      C1732   1.406       .  A
C1732      H1736   1.083       .  S
C1733      C1738   1.408       .  A
C1733      C1742   1.406       .  A
C1738      C1739   1.398       .  A
C1738      H1743   1.083       .  S
C1739      C1740   1.405       .  A
C1739      H1744   1.083       .  S
C1740      C1741   1.405       .  A
C1741      C1742   1.397       .  A
C1741      H1745   1.083       .  S
C1742      H1746   1.082       .  S
C1747      C1748   1.408       .  A
C1747      C1752   1.404       .  A
C1747      H1757   1.081       .  S
C1748      C1753   1.500       .  S
C1748      C1749   1.410       .  A
C1749      C1750   1.400       .  A
C1749      H1754   1.083       .  S
C1750      C1751   1.405       .  A
C1750      H1755   1.082       .  S
C1751      C1752   1.409       .  A
C1752      H1756   1.084       .  S
C1753      C1758   1.411       .  A
C1753      C1762   1.407       .  A
C1758      C1759   1.406       .  A
C1758      H1763   1.084       .  S
C1759      C1760   1.406       .  A
C1759      H1764   1.082       .  S
C1760      C1761   1.405       .  A
C1761      C1762   1.398       .  A
C1761      H1765   1.084       .  S
C1762      H1766   1.081       .  S
C1767      C1768   1.402       .  A
C1767      C1772   1.394       .  A
C1767      H1777   1.084       .  S
C1768      C1773   1.487       .  S
C1768      C1769   1.410       .  A
C1769      C1770   1.404       .  A
C1769      H1774   1.081       .  S
C1770      C1771   1.405       .  A
C1770      H1775   1.084       .  S
C1771      C1772   1.408       .  A
C1772      H1776   1.082       .  S
C1773      C1778   1.408       .  A
C1773      C1782   1.405       .  A
C1778      C1779   1.396       .  A
C1778      H1783   1.082       .  S
C1779      C1780   1.403       .  A
C1779      H1784   1.084       .  S
C1780      C1781   1.407       .  A
C1781      C1782   1.400       .  A
C1781      H1785   1.082       .  S
C1782      H1786   1.084       .  S
C1787      C1788   1.401       .  A
C1787      C1792   1.392       .  A
C1787      H1797   1.083       .  S
C1788      C1793   1.489       .  S
C1788      C1789   1.410       .  A
C1789      C1790   1.409       .  A
C1789      H1794   1.083       .  S
C1790      C1791   1.407       .  A
C1790      H1795   1.082       .  S
C1791      C1792   1.409       .  A
C1792      H1796   1.084       .  S
C1793      C1798   1.408       .  A
C1793      C1802   1.405       .  A
C1798      C1799   1.398       .  A
C1798      H1803   1.084       .  S
C1799      C1800   1.402       .  A
C1799      H1804   1.082       .  S
C1800      C1801   1.409       .  A
C1801      C1802   1.403       .  A
C1801      H1805   1.084       .  S
C1802      H1806   1.082       .  S
