geometry optimzed in LAMMPS
_audit_creation_date              2020-11-30 
_audit_creation_method            'lammps2cif' 
_symmetry_space_group_name_H-M    'P1' 
_symmetry_Int_Tables_number       1 
_symmetry_cell_setting            triclinic 
loop_ 
_symmetry_equiv_pos_as_xyz 
  x,y,z 
_cell_length_a                    72.79372758796333 
_cell_length_b                    72.72678096651215 
_cell_length_c                    72.63471215764801 
_cell_angle_alpha                 89.83050397680705 
_cell_angle_beta                  89.75840515808953 
_cell_angle_gamma                 90.00920065277748 
loop_ 
_atom_site_label 
_atom_site_type_symbol 
_atom_site_fract_x 
_atom_site_fract_y 
_atom_site_fract_z 
_atom_site_charge 
C1          C  0.76414370  0.25039271  0.73602716     0.03030
C2          C  0.76436303  0.23685408  0.74974183    -0.13120
C3          C  0.75106619  0.23701968  0.76370487     0.00530
C4          C  0.73744190  0.25058294  0.76382029    -0.11650
C5          C  0.73717422  0.26401843  0.75000825     0.03020
C6          C  0.75054126  0.26395893  0.73613614    -0.11070
H7          H  0.77490828  0.22632900  0.74963091     0.08610
H8          H  0.72708478  0.25066813  0.77458958     0.06140
H9          H  0.75036364  0.27442649  0.72547795     0.05990
C10         C  0.66023782  0.33991404  0.76751613     0.03030
C11         C  0.67477460  0.32716996  0.76715032    -0.13120
C12         C  0.68195445  0.32063757  0.75051174     0.00530
C13         C  0.67449752  0.32689402  0.73394998    -0.11650
C14         C  0.66007175  0.33959605  0.73379078     0.03020
C15         C  0.65245176  0.34555366  0.75061262    -0.11070
H16         H  0.68063571  0.32226224  0.77991368     0.08610
H17         H  0.68008805  0.32198453  0.72100970     0.06140
H18         H  0.64080159  0.35478846  0.75045394     0.05990
C19         C  0.76815505  0.15947238  0.83937971     0.03030
C20         C  0.76781645  0.17248183  0.82507971    -0.13120
C21         C  0.75129602  0.18035730  0.81925825     0.00530
C22         C  0.73491307  0.17514582  0.82790535    -0.11650
C23         C  0.73454788  0.16095409  0.84102846     0.03020
C24         C  0.75134958  0.15332829  0.84700115    -0.11070
H25         H  0.78056907  0.17658810  0.81849730     0.08610
H26         H  0.72222324  0.18188471  0.82403981     0.06140
H27         H  0.75136554  0.14272637  0.85747389     0.05990
C28         C  0.84085314  0.26669878  0.65949316     0.03030
C29         C  0.82601736  0.26664877  0.67179323    -0.13120
C30         C  0.81876536  0.25012301  0.67851718     0.00530
C31         C  0.82628363  0.23349159  0.67245551    -0.11650
C32         C  0.84050189  0.23315704  0.65933924     0.03020
C33         C  0.84817359  0.24992335  0.65324810    -0.11070
H34         H  0.82025223  0.27962410  0.67632723     0.08610
H35         H  0.82090979  0.22067865  0.67786800     0.06140
H36         H  0.85957527  0.24995234  0.64362155     0.05990
O37         O  0.85384074  0.14807741  0.86857694    -0.57920
C38         C  0.91224255  0.13744659  0.88422128     0.74710
O39         O  0.87154698  0.09852093  0.89841293    -0.59070
C40         C  0.84103825  0.13718859  0.86382231     0.74680
C41         C  0.88633254  0.10917647  0.83935946     0.77080
Cd42       Cd  0.87643079  0.12321232  0.87482492     1.37460
O43         O  0.89883162  0.14826883  0.88127219    -0.57910
O44         O  0.88767843  0.12600847  0.84354458    -0.56720
C45         C  0.86624638  0.10979547  0.91071252     0.77040
O46         O  0.88019958  0.09832490  0.85171879    -0.59090
O47         O  0.90873478  0.12044083  0.88279726    -0.57550
O48         O  0.84487572  0.12021843  0.86442731    -0.57540
O49         O  0.86617833  0.12662819  0.90627350    -0.56710
C50         C  0.75202810  0.98619993  0.01119493     0.03030
C51         C  0.73937960  0.98586606  0.99662885    -0.13120
C52         C  0.73645398  0.00146916  0.98578554     0.00530
C53         C  0.74704022  0.01722486  0.98848547    -0.11650
C54         C  0.76174740  0.01696689  0.00086490     0.03020
C55         C  0.76303525  0.00199385  0.01320046    -0.11070
H56         H  0.73137118  0.97366643  0.99380590     0.08610
H57         H  0.74429393  0.02934447  0.98026419     0.06140
H58         H  0.77268106  0.00255372  0.02433547     0.05990
C59         C  0.84465624  0.08849319  0.98440717     0.03030
C60         C  0.83084056  0.07509950  0.98471881    -0.13120
C61         C  0.81999821  0.07230099  0.00056565     0.00530
C62         C  0.82327910  0.08345871  0.01592507    -0.11650
C63         C  0.83885132  0.09483801  0.01687475     0.03020
C64         C  0.84935751  0.09763587  0.00075409    -0.11070
H65         H  0.82837264  0.06729945  0.97230932     0.08610
H66         H  0.81412866  0.08273081  0.02767796     0.06140
H67         H  0.86110007  0.10675372  0.00079065     0.05990
C68         C  0.65986599  0.01726939  0.90973432     0.03030
C69         C  0.65324219  0.00049135  0.90277025    -0.13120
C70         C  0.66008391  0.98371872  0.90971321     0.00530
C71         C  0.67311886  0.98395529  0.92385102    -0.11650
C72         C  0.67975636  0.00060320  0.93079625     0.03020
C73         C  0.67347037  0.01715323  0.92327714    -0.11070
H74         H  0.64303652  0.00049953  0.89196083     0.08610
H75         H  0.67805284  0.97107464  0.92952661     0.06140
H76         H  0.67898791  0.03008147  0.92817642     0.05990
C77         C  0.76740772  0.90842781  0.08879852     0.03030
C78         C  0.76722990  0.92038710  0.07370106    -0.13120
C79         C  0.75099313  0.92936042  0.06827852     0.00530
C80         C  0.73476279  0.92553513  0.07821780    -0.11650
C81         C  0.73434695  0.91182143  0.09183124     0.03020
C82         C  0.75084130  0.90361853  0.09753169    -0.11070
H83         H  0.78002219  0.92271361  0.06642748     0.08610
H84         H  0.72220264  0.93286656  0.07526046     0.06140
H85         H  0.75077960  0.89355981  0.10856350     0.05990
O86         O  0.90025985  0.14986992  0.12118135    -0.57920
C87         C  0.88972664  0.08887424  0.13281030     0.74710
O88         O  0.85178967  0.13224592  0.14811512    -0.59070
C89         C  0.88871077  0.16169965  0.11538550     0.74680
C90         C  0.86217533  0.11728947  0.08963054     0.77080
Cd91       Cd  0.87641995  0.12558051  0.12518798     1.37470
O92         O  0.90104042  0.10162473  0.12863107    -0.57910
O93         O  0.87898915  0.12087108  0.09220006    -0.56720
C94         C  0.86297359  0.13491472  0.16127648     0.77040
O95         O  0.85155728  0.11778757  0.10359607    -0.59090
O96         O  0.87301855  0.09354549  0.13338762    -0.57550
O97         O  0.87208735  0.15669625  0.11444096    -0.57540
O98         O  0.87982342  0.13299477  0.15741752    -0.56710
O99         O  0.85129992  0.60292857  0.11826705    -0.57920
C100        C  0.86178871  0.66089087  0.13531078     0.74710
O101        O  0.90047037  0.61983538  0.14823531    -0.59070
C102        C  0.86222732  0.58950244  0.11575108     0.74680
C103        C  0.89012744  0.63528659  0.08896526     0.77080
Cd104      Cd  0.87605135  0.62538842  0.12485330     1.37470
O105        O  0.85084035  0.64822558  0.13030554    -0.57910
O106        O  0.87322507  0.63349687  0.09266278    -0.56720
C107        C  0.88909232  0.61466306  0.16057842     0.77040
O108        O  0.90122802  0.63185056  0.10203751    -0.59090
O109        O  0.87872150  0.65695738  0.13514268    -0.57550
O110        O  0.87918999  0.59308941  0.11727816    -0.57540
O111        O  0.87227271  0.61452129  0.15621936    -0.56710
O112        O  0.60316199  0.12089307  0.85085141    -0.57920
C113        C  0.66143088  0.13636340  0.86270977     0.74710
O114        O  0.62120277  0.14935500  0.89976932    -0.59070
C115        C  0.59047967  0.11596078  0.86193852     0.74680
C116        C  0.63655210  0.09012686  0.88876259     0.77080
Cd117      Cd  0.62585207  0.12558745  0.87574396     1.37470
O118        O  0.64909527  0.13097886  0.85157549    -0.57910
O119        O  0.63802725  0.09497519  0.87206830    -0.56720
C120        C  0.61643403  0.16169380  0.88822800     0.77040
O121        O  0.62978603  0.10177540  0.89995866    -0.59090
O122        O  0.65706154  0.13640903  0.87962051    -0.57550
O123        O  0.59454684  0.11517524  0.87886169    -0.57540
O124        O  0.61549827  0.15673289  0.87158874    -0.56710
C125        C  0.26747528  0.16227848  0.34562739     0.03030
C126        C  0.26737012  0.17593360  0.33194355    -0.13120
C127        C  0.25149846  0.17961061  0.32150933     0.00530
C128        C  0.23595855  0.16849851  0.32451177    -0.11650
C129        C  0.23515856  0.15636683  0.33946077     0.03020
C130        C  0.25098549  0.15309682  0.34990748    -0.11070
H131        H  0.27989538  0.18347781  0.32943574     0.08610
H132        H  0.22399833  0.16981675  0.31584248     0.06140
H133        H  0.25050812  0.14330985  0.36117767     0.05990
C134        C  0.15726635  0.33999240  0.23374654     0.03030
C135        C  0.16934788  0.32505423  0.23438242    -0.13120
C136        C  0.17898025  0.32065790  0.25060729     0.00530
C137        C  0.17563140  0.33147306  0.26630980    -0.11650
C138        C  0.16151235  0.34452636  0.26652703     0.03020
C139        C  0.15274418  0.34932980  0.25002267    -0.11070
H140        H  0.17129702  0.31722593  0.22189246     0.08610
H141        H  0.18352030  0.32952743  0.27871927     0.06140
H142        H  0.14249774  0.36012983  0.24986690     0.05990
C143        C  0.33922240  0.23378549  0.15680058     0.03030
C144        C  0.32499115  0.23419926  0.16989212    -0.13120
C145        C  0.32090717  0.25028872  0.17985266     0.00530
C146        C  0.33174124  0.26592703  0.17647984    -0.11650
C147        C  0.34381543  0.26656863  0.16145800     0.03020
C148        C  0.34778727  0.25037177  0.15177522    -0.11070
H149        H  0.31735625  0.22170244  0.17238534     0.08610
H150        H  0.33018562  0.27807191  0.18487139     0.06140
H151        H  0.35759866  0.25067691  0.14052616     0.05990
C152        C  0.26383034  0.25053978  0.23679061     0.03030
C153        C  0.26425422  0.23750333  0.25106613    -0.13120
C154        C  0.25133985  0.23762596  0.26545839     0.00530
C155        C  0.23719010  0.25079381  0.26484390    -0.11650
C156        C  0.23625237  0.26408586  0.25076004     0.03020
C157        C  0.25030965  0.26433199  0.23747946    -0.11070
H158        H  0.27476078  0.22714334  0.25095584     0.08610
H159        H  0.22682141  0.25068689  0.27544521     0.06140
H160        H  0.25044536  0.27523704  0.22743747     0.05990
C161        C  0.26490033  0.75042559  0.73620607     0.03030
C162        C  0.26320639  0.73589445  0.74873450    -0.13120
C163        C  0.25152475  0.73737096  0.76419233     0.00530
C164        C  0.24131768  0.75368141  0.76639966    -0.11650
C165        C  0.24132587  0.76713995  0.75258023     0.03020
C166        C  0.25342273  0.76570395  0.73771525    -0.11070
H167        H  0.27133087  0.72365036  0.74643082     0.08610
H168        H  0.23281032  0.75577209  0.77844547     0.06140
H169        H  0.25385077  0.77641231  0.72730387     0.05990
C170        C  0.16011898  0.83880067  0.73375670     0.03030
C171        C  0.17472347  0.82617095  0.73387383    -0.13120
C172        C  0.18208902  0.81975640  0.75055633     0.00530
C173        C  0.17527964  0.82681775  0.76715933    -0.11650
C174        C  0.16131213  0.84001329  0.76728430     0.03020
C175        C  0.15364072  0.84593283  0.75056117    -0.11070
H176        H  0.18039921  0.82142208  0.72092320     0.08610
H177        H  0.18078548  0.82196064  0.78013752     0.06140
H178        H  0.14269325  0.85602567  0.75063921     0.05990
C179        C  0.34080347  0.76674478  0.65924123     0.03030
C180        C  0.32662364  0.76617442  0.67227299    -0.13120
C181        C  0.32032376  0.74936417  0.67936937     0.00530
C182        C  0.32849760  0.73299185  0.67333850    -0.11650
C183        C  0.34214916  0.73329408  0.65970773     0.03020
C184        C  0.34841445  0.75023680  0.65269686    -0.11070
H185        H  0.32054718  0.77894833  0.67696727     0.08610
H186        H  0.32414656  0.71993407  0.67910261     0.06140
H187        H  0.35907603  0.75055907  0.64224705     0.05990
C188        C  0.26670912  0.66197745  0.84364372     0.03030
C189        C  0.26635133  0.67619598  0.83060361    -0.13120
C190        C  0.25050690  0.67974676  0.82019879     0.00530
C191        C  0.23430703  0.67010763  0.82459271    -0.11650
C192        C  0.23388864  0.65719685  0.83896097     0.03020
C193        C  0.25021858  0.65301636  0.84835353    -0.11070
H194        H  0.27874378  0.68403410  0.82813568     0.08610
H195        H  0.22179070  0.67276823  0.81706887     0.06140
H196        H  0.25014602  0.64264633  0.85909749     0.05990
O197        O  0.36933607  0.89893291  0.09999096    -0.57920
C198        C  0.38479049  0.84003327  0.11134867     0.74710
O199        O  0.39768432  0.88416365  0.14885550    -0.59070
C200        C  0.36703132  0.91193143  0.11150710     0.74680
C201        C  0.33959700  0.86600085  0.13699201     0.77080
Cd202      Cd  0.37568398  0.87580665  0.12437046     1.37460
O203        O  0.38266754  0.85319242  0.09992131    -0.57910
O204        O  0.34342360  0.86943058  0.12032268    -0.56720
C205        C  0.41132888  0.88491246  0.13785150     0.77040
O206        O  0.35265127  0.86787366  0.14847617    -0.59090
O207        O  0.38209942  0.84371758  0.12816768    -0.57550
O208        O  0.36928827  0.90786047  0.12827687    -0.57540
O209        O  0.40848641  0.88078712  0.12119098    -0.56710
C210        C  0.16005878  0.90982572  0.98296930     0.03030
C211        C  0.15319099  0.90324751  0.99988648    -0.13120
C212        C  0.15945912  0.91083655  0.01655775     0.00530
C213        C  0.17250918  0.92500278  0.01605358    -0.11650
C214        C  0.17920485  0.93160857  0.99925048     0.03020
C215        C  0.17307991  0.92398126  0.98275475    -0.11070
H216        H  0.14284528  0.89253816  0.00004696     0.08610
H217        H  0.17754347  0.93087944  0.02877410     0.06140
H218        H  0.17836661  0.92913154  0.96974778     0.05990
C219        C  0.26849030  0.09140526  0.91166075     0.03030
C220        C  0.26799515  0.07737732  0.92496665    -0.13120
C221        C  0.25131420  0.07170656  0.93266327     0.00530
C222        C  0.23499376  0.08038389  0.92754329    -0.11650
C223        C  0.23515718  0.09429592  0.91417777     0.03020
C224        C  0.25186578  0.09956517  0.90596975    -0.11070
H225        H  0.28060306  0.07078789  0.92935363     0.08610
H226        H  0.22205988  0.07580731  0.93343108     0.06140
H227        H  0.25186817  0.10974390  0.89505149     0.05990
C228        C  0.23576813  0.98673069  0.99965160     0.03030
C229        C  0.23682806  0.99976172  0.98552139    -0.13120
C230        C  0.25121131  0.01244538  0.98516917     0.00530
C231        C  0.26528234  0.01120431  0.99817976    -0.11650
C232        C  0.26405155  0.99880546  0.01310658     0.03020
C233        C  0.24860081  0.98713545  0.01401398    -0.11070
H234        H  0.22636866  0.00017130  0.97494781     0.08610
H235        H  0.27692243  0.02033856  0.99666421     0.06140
H236        H  0.24635105  0.97827417  0.02577358     0.05990
C237        C  0.33872163  0.01707259  0.09301057     0.03030
C238        C  0.32389997  0.01655506  0.08079587    -0.13120
C239        C  0.32025024  0.00072014  0.07039672     0.00530
C240        C  0.33039343  0.98466697  0.07418380    -0.11650
C241        C  0.34399102  0.98443085  0.08778909     0.03020
C242        C  0.34831035  0.00080988  0.09697805    -0.11070
H243        H  0.31570116  0.02881121  0.07894096     0.08610
H244        H  0.32760299  0.97210670  0.06678456     0.06140
H245        H  0.35921534  0.00094879  0.10708648     0.05990
O246        O  0.14962605  0.87902499  0.89888947    -0.57920
C247        C  0.13923842  0.86576936  0.83939655     0.74710
O248        O  0.10047069  0.85140261  0.87934148    -0.59070
C249        C  0.13826705  0.88441976  0.91111748     0.74680
C250        C  0.11327155  0.91108749  0.86548233     0.77080
Cd251      Cd  0.12545272  0.87479526  0.87526146     1.37470
O252        O  0.15034745  0.86857448  0.85259372    -0.57910
O253        O  0.13004402  0.90685449  0.86723154    -0.56720
C254        C  0.11156101  0.83862084  0.88385830     0.77040
O255        O  0.10169782  0.89829754  0.86869225    -0.59090
O256        O  0.12230697  0.86725394  0.84314634    -0.57550
O257        O  0.12149927  0.88519654  0.90656295    -0.57540
O258        O  0.12828170  0.84317639  0.88494242    -0.56710
C259        C  0.01889484  0.91024556  0.65964200     0.03030
C260        C  0.01887801  0.92316376  0.67385900    -0.13120
C261        C  0.00228883  0.92949669  0.68130558     0.00530
C262        C  0.98567410  0.92310828  0.67420165    -0.11650
C263        C  0.98541807  0.90979658  0.66033493     0.03020
C264        C  0.00214297  0.90340342  0.65294301    -0.11070
H265        H  0.03181598  0.92819238  0.67920749     0.08610
H266        H  0.97283207  0.92847675  0.67955465     0.06140
H267        H  0.00216104  0.89299290  0.64230419     0.05990
C268        C  0.08832450  0.98334930  0.84284229     0.03030
C269        C  0.09317489  0.00041558  0.85048743    -0.13120
C270        C  0.08687238  0.01694646  0.84245867     0.00530
C271        C  0.07583893  0.01607449  0.82675860    -0.11650
C272        C  0.07058810  0.99918109  0.81928767     0.03020
C273        C  0.07734444  0.98287373  0.82705931    -0.11070
H274        H  0.10185981  0.00080526  0.86255431     0.08610
H275        H  0.07132014  0.02868362  0.82023477     0.06140
H276        H  0.07399324  0.96975023  0.82089823     0.05990
C277        C  0.98911548  0.01364694  0.74983641     0.03030
C278        C  0.98743003  0.99813155  0.73835143    -0.13120
C279        C  0.00188811  0.98566094  0.73654559     0.00530
C280        C  0.01725792  0.98714656  0.74773049    -0.11650
C281        C  0.01878774  0.00184226  0.75985666     0.03020
C282        C  0.00540827  0.01569394  0.76004593    -0.11070
H283        H  0.97514806  0.99582221  0.73033991     0.08610
H284        H  0.02795907  0.97678727  0.74710909     0.06140
H285        H  0.00760823  0.02764782  0.76856311     0.05990
C286        C  0.90745238  0.08643868  0.76622716     0.03030
C287        C  0.90200204  0.09501274  0.74977635    -0.13120
C288        C  0.91046945  0.09007893  0.73307711     0.00530
C289        C  0.92514539  0.07756602  0.73323077    -0.11650
C290        C  0.92987662  0.06789923  0.74933628     0.03020
C291        C  0.92060981  0.07240466  0.76574362    -0.11070
H292        H  0.89132500  0.10538556  0.74997632     0.08610
H293        H  0.93270831  0.07538684  0.72058433     0.06140
H294        H  0.92372071  0.06528639  0.77845866     0.05990
O295        O  0.10284268  0.12762509  0.90099375    -0.57920
C296        C  0.16255374  0.11501590  0.88973401     0.74710
O297        O  0.11737249  0.10195224  0.85137089    -0.59070
C298        C  0.09120697  0.13511153  0.89030009     0.74680
C299        C  0.13610979  0.15969783  0.86222347     0.77080
Cd300      Cd  0.12637530  0.12396631  0.87610107     1.37470
O301        O  0.15013870  0.12078081  0.90067573    -0.57910
O302        O  0.13618056  0.15552377  0.87915775    -0.56720
C303        C  0.11481131  0.08860568  0.86245968     0.77040
O304        O  0.13188877  0.14693483  0.85102178    -0.59090
O305        O  0.15813223  0.11352733  0.87294046    -0.57550
O306        O  0.09591298  0.13715856  0.87365230    -0.57540
O307        O  0.11803116  0.09155513  0.87930071    -0.56710
O308        O  0.35054723  0.10236257  0.12107404    -0.57920
C309        C  0.36134305  0.16035094  0.13471829     0.74710
O310        O  0.40036642  0.12168173  0.14964456    -0.59070
C311        C  0.36147263  0.08905615  0.11802090     0.74680
C312        C  0.38827566  0.13305096  0.08963537     0.77080
Cd313      Cd  0.37562534  0.12474246  0.12620268     1.37470
O314        O  0.35054558  0.14713562  0.13101978    -0.57910
O315        O  0.37172438  0.13421121  0.09477657    -0.56720
C316        C  0.38926806  0.11701303  0.16244597     0.77040
O317        O  0.39974208  0.12819988  0.10193996    -0.59090
O318        O  0.37835135  0.15665718  0.13440738    -0.57550
O319        O  0.37848279  0.09262197  0.11891038    -0.57540
O320        O  0.37256928  0.11561974  0.15793049    -0.56710
O321        O  0.63122810  0.85146317  0.14883229    -0.57920
C322        C  0.61596646  0.86258359  0.09027361     0.74710
O323        O  0.60234288  0.90094919  0.12963191    -0.59070
C324        C  0.63688618  0.86255104  0.16111098     0.74680
C325        C  0.66189288  0.88954344  0.11603355     0.77080
Cd326      Cd  0.62603320  0.87635972  0.12587084     1.37470
O327        O  0.61914822  0.85158030  0.10354447    -0.57910
O328        O  0.65698901  0.87295931  0.11403442    -0.56720
C329        C  0.59058994  0.89001873  0.13669193     0.77040
O330        O  0.64994093  0.90063272  0.12243229    -0.59090
O331        O  0.61737801  0.87956306  0.09386084    -0.57550
O332        O  0.63772190  0.87939825  0.15676251    -0.57540
O333        O  0.59535350  0.87338796  0.13847752    -0.56710
O334        O  0.65024537  0.85168833  0.87141928    -0.57920
C335        C  0.63900730  0.91075135  0.88546687     0.74710
O336        O  0.60089504  0.88024563  0.85360278    -0.59070
C337        C  0.63903376  0.83923994  0.86639894     0.74680
C338        C  0.61135474  0.86397973  0.91180951     0.77080
Cd339      Cd  0.62548422  0.87468636  0.87653705     1.37470
O340        O  0.65013372  0.89749121  0.88294558    -0.57910
O341        O  0.62818235  0.86279996  0.90757796    -0.56720
C342        C  0.61206735  0.88313979  0.84037658     0.77040
O343        O  0.60055658  0.87042203  0.89967396    -0.59090
O344        O  0.62211912  0.90693136  0.88395165    -0.57550
O345        O  0.62214080  0.84337533  0.86613478    -0.57540
O346        O  0.62899896  0.88218347  0.84426010    -0.56710
C347        C  0.41069055  0.73448460  0.09294956     0.03030
C348        C  0.40160142  0.75096642  0.09719885    -0.13120
C349        C  0.40604093  0.76723380  0.08770660     0.00530
C350        C  0.41944045  0.76682972  0.07379624    -0.11650
C351        C  0.42997328  0.75094937  0.07069549     0.03020
C352        C  0.42548601  0.73487404  0.08058202    -0.11070
H353        H  0.39097694  0.75110237  0.10769077     0.08610
H354        H  0.42200213  0.77916547  0.06586188     0.06140
H355        H  0.43321609  0.72235143  0.07844597     0.05990
C356        C  0.51640819  0.76049220  0.00192822     0.03030
C357        C  0.50360580  0.75962122  0.01632837    -0.13120
C358        C  0.48823656  0.74788575  0.01525833     0.00530
C359        C  0.48658604  0.73654512  0.99965609    -0.11650
C360        C  0.50060052  0.73578440  0.98638019     0.03020
C361        C  0.51520886  0.74821282  0.98723914    -0.11070
H362        H  0.50550682  0.76858682  0.02802793     0.08610
H363        H  0.47447289  0.72820360  0.99765056     0.06140
H364        H  0.52559495  0.74838684  0.97649929     0.05990
C365        C  0.48344067  0.66261842  0.90649658     0.03030
C366        C  0.48278002  0.67608541  0.92019780    -0.13120
C367        C  0.49888579  0.68187421  0.92873370     0.00530
C368        C  0.51562194  0.67369825  0.92420840    -0.11650
C369        C  0.51681004  0.66046195  0.91019797     0.03020
C370        C  0.50049767  0.65509574  0.90117498    -0.11070
H371        H  0.46971420  0.68197424  0.92431353     0.08610
H372        H  0.52780777  0.67786655  0.93163345     0.06140
H373        H  0.50096488  0.64525394  0.89003791     0.05990
C374        C  0.58969125  0.84005097  0.98461438     0.03030
C375        C  0.59643446  0.84719445  0.00127405    -0.13120
C376        C  0.58995652  0.84021408  0.01823065     0.00530
C377        C  0.57668853  0.82623435  0.01831306    -0.11650
C378        C  0.57073080  0.81827845  0.00185624     0.03020
C379        C  0.57719758  0.82539212  0.98510530    -0.11070
H380        H  0.60677124  0.85790869  0.00103602     0.08610
H381        H  0.57117687  0.82138147  0.03132744     0.06140
H382        H  0.57247365  0.81948722  0.97228448     0.05990
C383        C  0.66178960  0.73385920  0.84072866     0.03030
C384        C  0.65472245  0.75050062  0.84776906    -0.13120
C385        C  0.66066309  0.76747446  0.84048319     0.00530
C386        C  0.67382983  0.76772921  0.82640038    -0.11650
C387        C  0.68087627  0.75136327  0.81921014     0.03020
C388        C  0.67477095  0.73453661  0.82639454    -0.11070
H389        H  0.64461501  0.75026639  0.85875529     0.08610
H390        H  0.67855505  0.78080396  0.82095557     0.06140
H391        H  0.68020907  0.72186400  0.82080981     0.05990
C392        C  0.83991580  0.66051401  0.73354342     0.03030
C393        C  0.82833565  0.67588970  0.73377740    -0.13120
C394        C  0.82084660  0.68239596  0.75028276     0.00530
C395        C  0.82608590  0.67414886  0.76689193    -0.11650
C396        C  0.83952784  0.66033586  0.76726182     0.03020
C397        C  0.84625319  0.65333575  0.75044445    -0.11070
H398        H  0.82470271  0.68254958  0.72093697     0.08610
H399        H  0.81984043  0.67862242  0.77967904     0.06140
H400        H  0.85625136  0.64232202  0.75051563     0.05990
C401        C  0.73539075  0.83926374  0.65585724     0.03030
C402        C  0.73576431  0.82533834  0.66923448    -0.13120
C403        C  0.75146617  0.82237790  0.68005371     0.00530
C404        C  0.76746114  0.83246377  0.67593661    -0.11650
C405        C  0.76783857  0.84525467  0.66149158     0.03020
C406        C  0.75161080  0.84896012  0.65176126    -0.11070
H407        H  0.72349957  0.81728163  0.67159880     0.08610
H408        H  0.77988720  0.83025047  0.68374530     0.06140
H409        H  0.75158919  0.85938682  0.64107044     0.05990
C410        C  0.73907464  0.75272951  0.76534954     0.03030
C411        C  0.75103900  0.73782830  0.76399511    -0.13120
C412        C  0.76329578  0.73673154  0.74923495     0.00530
C413        C  0.76291514  0.75007198  0.73532290    -0.11650
C414        C  0.75205152  0.76596888  0.73727042     0.03020
C415        C  0.74017528  0.76713923  0.75260229    -0.11070
H416        H  0.75079762  0.72709916  0.77439004     0.08610
H417        H  0.77148321  0.74814083  0.72329073     0.06140
H418        H  0.73148901  0.77903890  0.75465582     0.05990
C419        C  0.48366194  0.90918052  0.16036949     0.03030
C420        C  0.50058557  0.90413198  0.15216556    -0.13120
C421        C  0.51727850  0.91037454  0.15969731     0.00530
C422        C  0.51693550  0.92219200  0.17485395    -0.11650
C423        C  0.50030906  0.92846196  0.18214878     0.03020
C424        C  0.48383302  0.92145697  0.17528696    -0.11070
H425        H  0.50084135  0.89525017  0.14023565     0.08610
H426        H  0.52976139  0.92685696  0.18076438     0.06140
H427        H  0.47101619  0.92578772  0.18154115     0.05990
C428        C  0.49943566  0.98245879  0.23988265     0.03030
C429        C  0.48520213  0.99536619  0.24050394    -0.13120
C430        C  0.48719049  0.01171837  0.25062924     0.00530
C431        C  0.50295967  0.01375080  0.26168796    -0.11650
C432        C  0.51605644  0.99971168  0.26273809     0.03020
C433        C  0.51467747  0.98445636  0.25125303    -0.11070
H434        H  0.47292762  0.99279343  0.23259149     0.08610
H435        H  0.50502296  0.02597593  0.26987923     0.06140
H436        H  0.52535925  0.97406479  0.25129659     0.05990
C437        C  0.41375850  0.09289469  0.23452741     0.03030
C438        C  0.42652870  0.07840362  0.23468307    -0.13120
C439        C  0.43075671  0.06885934  0.25104608     0.00530
C440        C  0.42106701  0.07347325  0.26715139    -0.11650
C441        C  0.40937569  0.08871194  0.26756101     0.03020
C442        C  0.40547596  0.09822159  0.25122518    -0.11070
H443        H  0.43313361  0.07462495  0.22190710     0.08610
H444        H  0.42300012  0.06565016  0.27968039     0.06140
H445        H  0.39624090  0.10989935  0.25159282     0.05990
C446        C  0.59098815  0.01782021  0.34045097     0.03030
C447        C  0.57873600  0.01759100  0.32553295    -0.13120
C448        C  0.57274859  0.00100699  0.31789066     0.00530
C449        C  0.57898915  0.98442719  0.32540314    -0.11650
C450        C  0.59053146  0.98421047  0.34074871     0.03020
C451        C  0.59639293  0.00094541  0.34843512    -0.11070
H452        H  0.57379692  0.03042021  0.31981225     0.08610
H453        H  0.57457862  0.97150847  0.31945736     0.06140
H454        H  0.60523655  0.00077920  0.36037873     0.05990
O455        O  0.14914133  0.35288513  0.86514625    -0.57920
C456        C  0.13759813  0.41039284  0.88510792     0.74710
O457        O  0.09937852  0.38051164  0.85270233    -0.59070
C458        C  0.13821745  0.33923736  0.86437363     0.74680
C459        C  0.11218930  0.36458389  0.91070924     0.77080
Cd460      Cd  0.12468939  0.37469015  0.87479991     1.37460
O461        O  0.14894518  0.39731835  0.88256490    -0.57910
O462        O  0.12905963  0.36644337  0.90683618    -0.56720
C463        C  0.11028520  0.38405005  0.83941355     0.77040
O464        O  0.10065996  0.36761956  0.89792261    -0.59090
O465        O  0.12076211  0.40695697  0.88253581    -0.57550
O466        O  0.12164821  0.34201739  0.86888635    -0.57540
O467        O  0.12733148  0.38315816  0.84262379    -0.56710
O468        O  0.10296433  0.61664148  0.85102309    -0.57920
C469        C  0.16115827  0.63445141  0.86254685     0.74710
O470        O  0.11981954  0.64754286  0.90005047    -0.59070
C471        C  0.08949318  0.61511876  0.86215344     0.74680
C472        C  0.13521743  0.58867605  0.88823645     0.77080
Cd473      Cd  0.12520616  0.62458032  0.87546087     1.37470
O474        O  0.14811228  0.63226509  0.85110757    -0.57910
O475        O  0.13379881  0.59286330  0.87137965    -0.56720
C476        C  0.11704343  0.66067669  0.88875144     0.77040
O477        O  0.13123469  0.60121793  0.89980416    -0.59090
O478        O  0.15734259  0.63146673  0.87930157    -0.57550
O479        O  0.09252004  0.61848115  0.87896006    -0.57540
O480        O  0.11789672  0.65675091  0.87178241    -0.56710
C481        C  0.00217972  0.51571370  0.76130781     0.03030
C482        C  0.98626707  0.51192990  0.75122450    -0.13120
C483        C  0.98642759  0.49871397  0.73711516     0.00530
C484        C  0.00208987  0.48757438  0.73523729    -0.11650
C485        C  0.01725880  0.48940376  0.74706055     0.03020
C486        C  0.01781034  0.50477732  0.75867952    -0.11070
H487        H  0.97392317  0.51969745  0.75414634     0.08610
H488        H  0.00238669  0.47739282  0.72452147     0.06140
H489        H  0.03019015  0.50793157  0.76623011     0.05990
C490        C  0.09081139  0.40949929  0.76671194     0.03030
C491        C  0.07614445  0.42187038  0.76519491    -0.13120
C492        C  0.07275274  0.43135976  0.74865192     0.00530
C493        C  0.08384368  0.42737837  0.73331655    -0.11650
C494        C  0.09687233  0.41319829  0.73389762     0.03020
C495        C  0.10056990  0.40442419  0.75077864    -0.11070
H496        H  0.06778408  0.42441997  0.77727838     0.08610
H497        H  0.08207089  0.43492938  0.72061741     0.06140
H498        H  0.11119175  0.39402139  0.75155037     0.05990
C499        C  0.90674677  0.48377542  0.66160090     0.03030
C500        C  0.92074186  0.48339675  0.67490173    -0.13120
C501        C  0.93117186  0.49907037  0.67901150     0.00530
C502        C  0.92842774  0.51492439  0.66833291    -0.11650
C503        C  0.91313583  0.51666133  0.65665440     0.03020
C504        C  0.90206333  0.50095374  0.65368112    -0.11070
H505        H  0.92352248  0.47071682  0.68211009     0.08610
H506        H  0.93771806  0.52642398  0.66988623     0.06140
H507        H  0.88981740  0.50208311  0.64538230     0.05990
C508        C  0.98368455  0.58854630  0.84095573     0.03030
C509        C  0.98399105  0.57599450  0.82635406    -0.13120
C510        C  0.00059193  0.57060624  0.81840542     0.00530
C511        C  0.01704318  0.57823567  0.82453573    -0.11650
C512        C  0.01727911  0.59073039  0.83925607     0.03020
C513        C  0.00041595  0.59566239  0.84766858    -0.11070
H514        H  0.97125533  0.57015678  0.82134235     0.08610
H515        H  0.02975490  0.57421759  0.81784268     0.06140
H516        H  0.00024434  0.60500666  0.85923995     0.05990
C517        C  0.83966563  0.48324339  0.09104302     0.03030
C518        C  0.84589950  0.49997295  0.09857914    -0.13120
C519        C  0.84035991  0.51689614  0.09089444     0.00530
C520        C  0.82827764  0.51696087  0.07593417    -0.11650
C521        C  0.82112724  0.50052373  0.06902160     0.03020
C522        C  0.82760492  0.48379102  0.07601965    -0.11070
H523        H  0.85493142  0.49985677  0.11038956     0.08610
H524        H  0.82415419  0.52994202  0.06986488     0.06140
H525        H  0.82292378  0.47106799  0.06993773     0.05990
C526        C  0.73661132  0.48731393  0.00116147     0.03030
C527        C  0.75074408  0.48675132  0.01415836    -0.13120
C528        C  0.76485114  0.49980747  0.01343420     0.00530
C529        C  0.76491184  0.51328618  0.99968036    -0.11650
C530        C  0.75089944  0.51381770  0.98652644     0.03020
C531        C  0.73658833  0.50094136  0.98752179    -0.11070
H532        H  0.75076960  0.47622167  0.02475327     0.08610
H533        H  0.77599121  0.52323990  0.99913527     0.06140
H534        H  0.72543100  0.50148343  0.97770344     0.05990
C535        C  0.76712711  0.59033434  0.91007011     0.03030
C536        C  0.76701728  0.57738904  0.92440820    -0.13120
C537        C  0.75044936  0.57091760  0.93163024     0.00530
C538        C  0.73381851  0.57762964  0.92495529    -0.11650
C539        C  0.73349529  0.59141042  0.91141649     0.03020
C540        C  0.75030228  0.59788477  0.90409762    -0.11070
H541        H  0.77984223  0.57207019  0.92976651     0.08610
H542        H  0.72107569  0.57216076  0.93048070     0.06140
H543        H  0.75029712  0.60852167  0.89363744     0.05990
C544        C  0.65862472  0.41237541  0.98338407     0.03030
C545        C  0.67212896  0.42613394  0.98372224    -0.13120
C546        C  0.68015677  0.43162261  0.00033258     0.00530
C547        C  0.67337876  0.42430528  0.01688831    -0.11650
C548        C  0.65871644  0.41182440  0.01698647     0.03020
C549        C  0.65188606  0.40524022  0.00015072    -0.11070
H550        H  0.67661990  0.43233159  0.97089309     0.08610
H551        H  0.67943387  0.42841202  0.02984769     0.06140
H552        H  0.64134579  0.39472974  0.00012062     0.05990
O553        O  0.88457247  0.64973233  0.89688349    -0.57920
C554        C  0.86513179  0.63833299  0.83996925     0.74710
O555        O  0.89899419  0.59951754  0.87223388    -0.59070
C556        C  0.88477821  0.63926594  0.91094757     0.74680
C557        C  0.83944626  0.61316200  0.88488729     0.77080
Cd558      Cd  0.87593173  0.62478983  0.87556249     1.37460
O559        O  0.87022864  0.64930482  0.85256968    -0.57910
O560        O  0.84461983  0.62976303  0.88514576    -0.56720
C561        C  0.91121567  0.61018179  0.86558161     0.77040
O562        O  0.85163414  0.60135964  0.88044023    -0.59090
O563        O  0.86540755  0.62138457  0.84407081    -0.57550
O564        O  0.88091710  0.62248851  0.90850659    -0.57540
O565        O  0.90707987  0.62700111  0.86406669    -0.56710
O566        O  0.65128165  0.39730135  0.38287785    -0.57920
C567        C  0.63681603  0.34010008  0.36553960     0.74710
O568        O  0.59987334  0.37219798  0.39768444    -0.59070
C569        C  0.64128937  0.41164863  0.38338967     0.74680
C570        C  0.61283753  0.38688866  0.33916364     0.77080
Cd571      Cd  0.62530955  0.37670279  0.37488691     1.37470
O572        O  0.64855779  0.35243331  0.36955937    -0.57910
O573        O  0.62935556  0.38238966  0.34221721    -0.56720
C574        C  0.61060303  0.36787381  0.41078492     0.77040
O575        O  0.60161550  0.38618665  0.35263883    -0.59090
O576        O  0.62015839  0.34509867  0.36559771    -0.57550
O577        O  0.62449269  0.40974131  0.37948352    -0.57540
O578        O  0.62757848  0.36809412  0.40696566    -0.56710
O579        O  0.12077656  0.89785349  0.14876458    -0.57920
C580        C  0.13501348  0.88814974  0.08932866     0.74710
O581        O  0.14855423  0.84935719  0.13065200    -0.59070
C582        C  0.11617547  0.88633713  0.16122388     0.74680
C583        C  0.08930970  0.86226278  0.11533286     0.77080
Cd584      Cd  0.12553271  0.87406165  0.12502437     1.37460
O585        O  0.13215727  0.89904825  0.10271668    -0.57910
O586        O  0.09352904  0.87890695  0.11810150    -0.56720
C587        C  0.16082945  0.86071487  0.13578517     0.77040
O588        O  0.10212297  0.85051415  0.11755360    -0.59090
O589        O  0.13359231  0.87114319  0.09287764    -0.57550
O590        O  0.11558215  0.86963275  0.15641526    -0.57540
O591        O  0.15668253  0.87760228  0.13526932    -0.56710
C592        C  0.91406477  0.65734033  0.01593190     0.03030
C593        C  0.90572530  0.65197084  0.99935288    -0.13120
C594        C  0.90917906  0.66193995  0.98306003     0.00530
C595        C  0.91904761  0.67843716  0.98416569    -0.11650
C596        C  0.92882087  0.68314639  0.00010437     0.03020
C597        C  0.92672656  0.67188736  0.01578726    -0.11070
H598        H  0.89681033  0.64005075  0.99917386     0.08610
H599        H  0.91971317  0.68717145  0.97209158     0.06140
H600        H  0.93439569  0.67465739  0.02817848     0.05990
C601        C  0.01663005  0.83928781  0.09254793     0.03030
C602        C  0.01661340  0.82640265  0.07825045    -0.13120
C603        C  0.00009482  0.82011965  0.07089382     0.00530
C604        C  0.98341398  0.82716551  0.07730431    -0.11650
C605        C  0.98312837  0.84043226  0.09123321     0.03020
C606        C  0.99980262  0.84664519  0.09877261    -0.11070
H607        H  0.02949199  0.82096108  0.07306038     0.08610
H608        H  0.97062784  0.82222851  0.07152186     0.06140
H609        H  0.99965237  0.85674550  0.10970800     0.05990
C610        C  0.01744241  0.74762809  0.99102217     0.03030
C611        C  0.00144089  0.73706661  0.98812055    -0.13120
C612        C  0.98532035  0.73996025  0.99856340     0.00530
C613        C  0.98500231  0.75465922  0.01100546    -0.11650
C614        C  0.00087351  0.76477180  0.01461113     0.03020
C615        C  0.01718521  0.76059083  0.00533111    -0.11070
H616        H  0.00148100  0.72657964  0.97774840     0.08610
H617        H  0.97245538  0.75810846  0.01827985     0.06140
H618        H  0.02955223  0.76792405  0.00906446     0.05990
C619        C  0.09338753  0.73310197  0.91168274     0.03030
C620        C  0.09608786  0.74959845  0.90194154    -0.13120
C621        C  0.08772932  0.76601397  0.90792099     0.00530
C622        C  0.07596993  0.76536449  0.92333317    -0.11650
C623        C  0.07377408  0.74912663  0.93377817     0.03020
C624        C  0.08301276  0.73321167  0.92792630    -0.11070
H625        H  0.10476970  0.74964779  0.88978936     0.08610
H626        H  0.06886624  0.77771384  0.92741576     0.06140
H627        H  0.08189162  0.72056828  0.93574284     0.05990
O628        O  0.86885685  0.85260178  0.15025552    -0.57920
C629        C  0.88471276  0.91098653  0.13963026     0.74710
O630        O  0.89931245  0.87218321  0.10137284    -0.59070
C631        C  0.86441150  0.83998240  0.13899518     0.74680
C632        C  0.83982598  0.88527199  0.11102553     0.77080
Cd633      Cd  0.87509939  0.87561558  0.12546745     1.37470
O634        O  0.88079961  0.89790527  0.15064231    -0.57910
O635        O  0.84372475  0.88613147  0.12797230    -0.56720
C636        C  0.91091897  0.86544163  0.11257402     0.77040
O637        O  0.85254505  0.88006290  0.10014149    -0.59090
O638        O  0.88417268  0.90757495  0.12257800    -0.57550
O639        O  0.86503929  0.84410643  0.12205304    -0.57540
O640        O  0.90579002  0.86347034  0.12911974    -0.56710
C641        C  0.73446936  0.66024550  0.34070777     0.03030
C642        C  0.73472093  0.67432497  0.32753990    -0.13120
C643        C  0.75141365  0.68179323  0.32144737     0.00530
C644        C  0.76797594  0.67487235  0.32830708    -0.11650
C645        C  0.76795171  0.66076080  0.34144700     0.03020
C646        C  0.75113764  0.65347871  0.34775277    -0.11070
H647        H  0.72188374  0.67963327  0.32218792     0.08610
H648        H  0.78091325  0.68046146  0.32339683     0.06140
H649        H  0.75102827  0.64267609  0.35805930     0.05990
C650        C  0.76498062  0.75044418  0.23723167     0.03030
C651        C  0.76595045  0.73842083  0.25246578    -0.13120
C652        C  0.75175319  0.73780887  0.26548472     0.00530
C653        C  0.73733350  0.75039455  0.26451647    -0.11650
C654        C  0.73627446  0.76256353  0.24966677     0.03020
C655        C  0.74931235  0.76167227  0.23547326    -0.11070
H656        H  0.77760020  0.72937698  0.25433826     0.08610
H657        H  0.72681732  0.75053461  0.27513149     0.06140
H658        H  0.74744168  0.77024397  0.22343786     0.05990
C659        C  0.84462008  0.76636701  0.16175958     0.03030
C660        C  0.84825339  0.75022500  0.15184186    -0.13120
C661        C  0.83854225  0.73403790  0.15594734     0.00530
C662        C  0.82456687  0.73438450  0.16924099    -0.11650
C663        C  0.82187094  0.74995068  0.18038369     0.03020
C664        C  0.83219959  0.76587921  0.17651292    -0.11070
H665        H  0.85856835  0.75025217  0.14104414     0.08610
H666        H  0.81635651  0.72215123  0.17130698     0.06140
H667        H  0.83032513  0.77822989  0.18458338     0.05990
C668        C  0.66062179  0.83980107  0.26694540     0.03030
C669        C  0.65404984  0.84704099  0.25023465    -0.13120
C670        C  0.66104642  0.84049717  0.23341052     0.00530
C671        C  0.67449444  0.82676383  0.23336732    -0.11650
C672        C  0.68035606  0.81871768  0.24987445     0.03020
C673        C  0.67351962  0.82550711  0.26662783    -0.11070
H674        H  0.64384954  0.85788774  0.25032479     0.08610
H675        H  0.68024546  0.82221997  0.22036939     0.06140
H676        H  0.67813946  0.81959317  0.27951719     0.05990
C677        C  0.90879173  0.26770246  0.08993102     0.03030
C678        C  0.90229455  0.25092442  0.09710559    -0.13120
C679        C  0.90888895  0.23421746  0.08998504     0.00530
C680        C  0.92200325  0.23438346  0.07584608    -0.11650
C681        C  0.92903394  0.25100304  0.06898348     0.03020
C682        C  0.92259530  0.26761509  0.07639635    -0.11070
H683        H  0.89188966  0.25086548  0.10781558     0.08610
H684        H  0.92678351  0.22143671  0.07022861     0.06140
H685        H  0.92827959  0.28056425  0.07165638     0.05990
C686        C  0.01832605  0.15927714  0.91118075     0.03030
C687        C  0.00171554  0.15290934  0.90353014    -0.13120
C688        C  0.98467415  0.15957953  0.91012087     0.00530
C689        C  0.98458985  0.17277249  0.92420257    -0.11650
C690        C  0.00102450  0.17989273  0.93115772     0.03020
C691        C  0.01777166  0.17292157  0.92474986    -0.11070
H692        H  0.00208853  0.14294385  0.89248614     0.08610
H693        H  0.97162113  0.17765652  0.92970001     0.06140
H694        H  0.03051140  0.17818520  0.93033943     0.05990
C695        C  0.00066557  0.23552848  0.98750325     0.03030
C696        C  0.98700229  0.23567206  0.00111983    -0.13120
C697        C  0.98684751  0.24951624  0.01446158     0.00530
C698        C  0.00024735  0.26329462  0.01410123    -0.11650
C699        C  0.01390399  0.26317787  0.00050009     0.03020
C700        C  0.01406609  0.24934628  0.98712642    -0.11070
H701        H  0.97656836  0.22503539  0.00135882     0.08610
H702        H  0.00010783  0.27402305  0.02443487     0.06140
H703        H  0.02464237  0.24925417  0.97657608     0.05990
C704        C  0.09123920  0.33858009  0.98293234     0.03030
C705        C  0.07645256  0.32620882  0.98334606    -0.13120
C706        C  0.06863154  0.32049814  0.00006471     0.00530
C707        C  0.07595783  0.32711692  0.01658235    -0.11650
C708        C  0.09126079  0.33882010  0.01656267     0.03020
C709        C  0.09858423  0.34495079  0.99965017    -0.11070
H710        H  0.07105946  0.32094730  0.97053333     0.08610
H711        H  0.06988432  0.32293575  0.02958678     0.06140
H712        H  0.11016718  0.35430581  0.99950197     0.05990
C713        C  0.90940016  0.58892764  0.23302614     0.03030
C714        C  0.92303761  0.57537092  0.23336573    -0.13120
C715        C  0.93082272  0.56972966  0.25007447     0.00530
C716        C  0.92414832  0.57716760  0.26655806    -0.11650
C717        C  0.90925420  0.58937253  0.26662303     0.03020
C718        C  0.90235826  0.59583458  0.24969427    -0.11070
H719        H  0.92768195  0.56936945  0.22053142     0.08610
H720        H  0.93028455  0.57306995  0.27950388     0.06140
H721        H  0.89130627  0.60580489  0.24945560     0.05990
C722        C  0.01433222  0.50137458  0.26355287     0.03030
C723        C  0.99804153  0.51157454  0.26570887    -0.13120
C724        C  0.98487236  0.51190173  0.25174036     0.00530
C725        C  0.98655329  0.50011764  0.23671813    -0.11650
C726        C  0.00205377  0.48894580  0.23487710     0.03020
C727        C  0.01620327  0.49022028  0.24782397    -0.11070
H728        H  0.99570465  0.51975127  0.27790187     0.08610
H729        H  0.97575474  0.49968705  0.22650334     0.06140
H730        H  0.02859020  0.48231079  0.24552495     0.05990
C731        C  0.98383784  0.41091267  0.16092678     0.03030
C732        C  0.00055984  0.40437862  0.15358307    -0.13120
C733        C  0.01737992  0.41185289  0.15952704     0.00530
C734        C  0.01732887  0.42573401  0.17282327    -0.11650
C735        C  0.00080878  0.43216202  0.18015516     0.03020
C736        C  0.98412735  0.42486335  0.17418962    -0.11070
H737        H  0.00048481  0.39358773  0.14333185     0.08610
H738        H  0.03020077  0.43145568  0.17762018     0.06140
H739        H  0.97136399  0.43001961  0.17993209     0.05990
C740        C  0.08879955  0.48377785  0.34311604     0.03030
C741        C  0.07435279  0.48448220  0.33046405    -0.13120
C742        C  0.07079560  0.50054472  0.32029512     0.00530
C743        C  0.08055927  0.51662985  0.32470004    -0.11650
C744        C  0.09387035  0.51666516  0.33860058     0.03020
C745        C  0.09810394  0.50007865  0.34763678    -0.11070
H746        H  0.06637533  0.47218520  0.32805299     0.08610
H747        H  0.07774659  0.52932964  0.31747226     0.06140
H748        H  0.10876611  0.49979999  0.35799745     0.05990
O749        O  0.89805943  0.38343772  0.15105699    -0.57920
C750        C  0.83993882  0.36690038  0.14031651     0.74710
O751        O  0.86716844  0.39786764  0.10201142    -0.59070
C752        C  0.91143898  0.38538624  0.13986677     0.74680
C753        C  0.88578022  0.34003580  0.11401979     0.77080
Cd754      Cd  0.87563193  0.37600726  0.12667554     1.37470
O755        O  0.85337435  0.36828180  0.15138515    -0.57910
O756        O  0.88295436  0.34381560  0.13078164    -0.56720
C757        C  0.86621798  0.41153383  0.11288774     0.77040
O758        O  0.88318557  0.35303383  0.10251531    -0.59090
O759        O  0.84303998  0.37021942  0.12348727    -0.57550
O760        O  0.90787150  0.38304085  0.12296989    -0.57540
O761        O  0.87013207  0.40874645  0.12962938    -0.56710
O762        O  0.13291004  0.64739808  0.35020735    -0.57920
C763        C  0.11713701  0.58900980  0.36267887     0.74710
O764        O  0.14819048  0.61924862  0.40028977    -0.59070
C765        C  0.13371030  0.66114254  0.36098307     0.74680
C766        C  0.08986038  0.63427826  0.38894900     0.77080
Cd767      Cd  0.12571052  0.62542642  0.37526946     1.37460
O768        O  0.12063062  0.60173086  0.35107897    -0.57910
O769        O  0.09322505  0.63167262  0.37201319    -0.56720
C770        C  0.16169958  0.61714354  0.38932492     0.77040
O771        O  0.10339613  0.63258154  0.39985817    -0.59090
O772        O  0.11757868  0.59360931  0.37943401    -0.57550
O773        O  0.13029546  0.65832304  0.37784354    -0.57540
O774        O  0.15823815  0.61914890  0.37237578    -0.56710
O775        O  0.14890848  0.39890554  0.12067313    -0.57920
C776        C  0.08960078  0.38911572  0.13455293     0.74710
O777        O  0.11819231  0.35112802  0.10162441    -0.59070
C778        C  0.16092425  0.38757533  0.11484648     0.74680
C779        C  0.13466623  0.36102531  0.16063784     0.77080
Cd780      Cd  0.12511379  0.37490178  0.12501900     1.37470
O781        O  0.10296482  0.40002310  0.13153857    -0.57910
O782        O  0.13637121  0.37772647  0.15603226    -0.56720
C783        C  0.11511012  0.36277979  0.08884865     0.77040
O784        O  0.12869313  0.35001509  0.14844625    -0.59090
O785        O  0.09308655  0.37211952  0.13322303    -0.57550
O786        O  0.15615512  0.37085854  0.11368802    -0.57540
O787        O  0.11704003  0.37951898  0.09312819    -0.56710
C788        C  0.48504918  0.08966189  0.84189306     0.03030
C789        C  0.50153572  0.09770345  0.84787342    -0.13120
C790        C  0.51814096  0.09350845  0.83897966     0.00530
C791        C  0.51816439  0.08181237  0.82375897    -0.11650
C792        C  0.50234929  0.07189579  0.81897274     0.03020
C793        C  0.48579489  0.07605863  0.82820959    -0.11070
H794        H  0.50148410  0.10713820  0.85938902     0.08610
H795        H  0.53082030  0.08004433  0.81611956     0.06140
H796        H  0.47326817  0.06895601  0.82466166     0.05990
C797        C  0.50317227  0.01609830  0.76104443     0.03030
C798        C  0.51491053  0.00073663  0.76264334    -0.13120
C799        C  0.51286147  0.98517577  0.75133729     0.00530
C800        C  0.49879077  0.98536177  0.73816812    -0.11650
C801        C  0.48865248  0.00132811  0.73488915     0.03020
C802        C  0.49141569  0.01686450  0.74580118    -0.11070
H803        H  0.52565175  0.00076741  0.77274707     0.08610
H804        H  0.49590787  0.97328811  0.72999430     0.06140
H805        H  0.48372744  0.02923454  0.74280741     0.05990
C806        C  0.59041129  0.90785599  0.76753512     0.03030
C807        C  0.57514844  0.91958026  0.76718891    -0.13120
C808        C  0.57030715  0.92926589  0.75112775     0.00530
C809        C  0.58114193  0.92674408  0.73522852    -0.11650
C810        C  0.59508568  0.91343156  0.73470846     0.03020
C811        C  0.59978123  0.90411075  0.75101072    -0.11070
H812        H  0.56724707  0.92124798  0.77971026     0.08610
H813        H  0.57835450  0.93460816  0.72291991     0.06140
H814        H  0.61074522  0.89403774  0.75084691     0.05990
C815        C  0.41128538  0.98349863  0.65978895     0.03030
C816        C  0.42516842  0.98375796  0.67303394    -0.13120
C817        C  0.43131877  0.00042756  0.68039996     0.00530
C818        C  0.42421163  0.01697288  0.67354414    -0.11650
C819        C  0.41087383  0.01700654  0.65970387     0.03020
C820        C  0.40412771  0.00015510  0.65303110    -0.11070
H821        H  0.43105481  0.97089070  0.67771960     0.08610
H822        H  0.42902264  0.02994544  0.67904049     0.06140
H823        H  0.39367670  0.99999588  0.64245950     0.05990
C824        C  0.15892862  0.23268359  0.84015841     0.03030
C825        C  0.15166671  0.24967340  0.84597412    -0.13120
C826        C  0.15975076  0.26634544  0.84000691     0.00530
C827        C  0.17420559  0.26554555  0.82711956    -0.11650
C828        C  0.18130183  0.24869889  0.82103589     0.03020
C829        C  0.17372236  0.23234209  0.82783954    -0.11070
H830        H  0.13999994  0.24982003  0.85525842     0.08610
H831        H  0.18008517  0.27814880  0.82177933     0.06140
H832        H  0.17930841  0.21922385  0.82349950     0.05990
C833        C  0.23517985  0.24881895  0.76266913     0.03030
C834        C  0.24841512  0.23489848  0.76166897    -0.13120
C835        C  0.26418793  0.23711505  0.75060675     0.00530
C836        C  0.26517851  0.25254057  0.73890316    -0.11650
C837        C  0.25097545  0.26546317  0.73852839     0.03020
C838        C  0.23632315  0.26399564  0.75089035    -0.11070
H839        H  0.24661790  0.22271221  0.77005579     0.08610
H840        H  0.27696763  0.25474897  0.73004104     0.06140
H841        H  0.22576569  0.27450433  0.75121857     0.05990
C842        C  0.23440643  0.34008993  0.66039965     0.03030
C843        C  0.23427285  0.32673336  0.67429755    -0.13120
C844        C  0.25076373  0.32067217  0.68200616     0.00530
C845        C  0.26745800  0.32797733  0.67588217    -0.11650
C846        C  0.26789245  0.34112137  0.66175397     0.03020
C847        C  0.25125196  0.34718411  0.65397352    -0.11070
H848        H  0.22133557  0.32112157  0.67918412     0.08610
H849        H  0.28018414  0.32309644  0.68186808     0.06140
H850        H  0.25137134  0.35755143  0.64322927     0.05990
C851        C  0.34262684  0.16168952  0.76752517     0.03030
C852        C  0.33146566  0.17733422  0.76635778    -0.13120
C853        C  0.32174682  0.18147726  0.75019321     0.00530
C854        C  0.32472869  0.17043328  0.73463877    -0.11650
C855        C  0.33836453  0.15686190  0.73469081     0.03020
C856        C  0.34685584  0.15197497  0.75135778    -0.11070
H857        H  0.32985202  0.18580767  0.77848531     0.08610
H858        H  0.31700999  0.17274015  0.72216230     0.06140
H859        H  0.35656671  0.14069484  0.75169940     0.05990
O860        O  0.39909924  0.38319855  0.64927137    -0.57920
C861        C  0.34037275  0.36598906  0.63929107     0.74710
O862        O  0.37054984  0.39977079  0.60151880    -0.59070
C863        C  0.41190539  0.38627444  0.63764114     0.74680
C864        C  0.38466605  0.33986662  0.61223608     0.77080
Cd865      Cd  0.37585298  0.37595841  0.62547633     1.37460
O866        O  0.35368607  0.36867086  0.65029905    -0.57910
O867        O  0.38351692  0.34379448  0.62918733    -0.56720
C868        C  0.36456487  0.41152280  0.61305021     0.77040
O869        O  0.38166420  0.35300640  0.60101654    -0.59090
O870        O  0.34391551  0.36775961  0.62226475    -0.57550
O871        O  0.40771953  0.38431864  0.62088806    -0.57540
O872        O  0.36386702  0.40665896  0.62978385    -0.56710
O873        O  0.12039956  0.39908993  0.64811907    -0.57920
C874        C  0.13673047  0.38774689  0.58930183     0.74710
O875        O  0.14957278  0.35007018  0.63143685    -0.59070
C876        C  0.11753542  0.38776974  0.66125182     0.74680
C877        C  0.09105209  0.36168607  0.61520874     0.77080
Cd878      Cd  0.12673831  0.37464234  0.62518927     1.37470
O879        O  0.13292266  0.39908066  0.60209840    -0.57910
O880        O  0.09433534  0.37845433  0.61842180    -0.56720
C881        C  0.16235142  0.36143950  0.63511452     0.77040
O882        O  0.10425036  0.35037551  0.61714313    -0.59090
O883        O  0.13601736  0.37084779  0.59345709    -0.57550
O884        O  0.11923680  0.37087823  0.65740650    -0.57540
O885        O  0.15835554  0.37836847  0.63416116    -0.56710
C886        C  0.26387612  0.50121008  0.51432183     0.03030
C887        C  0.26424431  0.51476827  0.50062000    -0.13120
C888        C  0.25106525  0.51471103  0.48664997     0.00530
C889        C  0.23732867  0.50125361  0.48657307    -0.11650
C890        C  0.23685838  0.48777879  0.50034727     0.03020
C891        C  0.25016279  0.48771993  0.51420278    -0.11070
H892        H  0.27491053  0.52517415  0.50068592     0.08610
H893        H  0.22701864  0.50128080  0.47584293     0.06140
H894        H  0.24986707  0.47721094  0.52481565     0.05990
C895        C  0.16200970  0.41001064  0.48338387     0.03030
C896        C  0.15612612  0.40235325  0.50027384    -0.13120
C897        C  0.16189889  0.41008163  0.51699960     0.00530
C898        C  0.17426243  0.42478088  0.51684087    -0.11650
C899        C  0.17958219  0.43307584  0.50024089     0.03020
C900        C  0.17279875  0.42601271  0.48364883    -0.11070
H901        H  0.14715085  0.39047257  0.50046325     0.08610
H902        H  0.17974197  0.42968332  0.52976898     0.06140
H903        H  0.17632728  0.43277889  0.47080629     0.05990
C904        C  0.33906650  0.48355255  0.59181578     0.03030
C905        C  0.32591986  0.48371072  0.57781983    -0.13120
C906        C  0.32062818  0.50027386  0.56946411     0.00530
C907        C  0.32787343  0.51685509  0.57610242    -0.11650
C908        C  0.33971256  0.51706183  0.59127323     0.03020
C909        C  0.34589359  0.50025565  0.59864661    -0.11070
H910        H  0.31997859  0.47082943  0.57334683     0.08610
H911        H  0.32399089  0.52974830  0.56969528     0.06140
H912        H  0.35561031  0.50015272  0.60990381     0.05990
C913        C  0.23410839  0.59156940  0.41099864     0.03030
C914        C  0.23442303  0.57817793  0.42491951    -0.13120
C915        C  0.25105027  0.57057956  0.43071061     0.00530
C916        C  0.26753971  0.57626828  0.42264129    -0.11650
C917        C  0.26765549  0.58985951  0.40894347     0.03020
C918        C  0.25084279  0.59749320  0.40309055    -0.11070
H919        H  0.22168978  0.57346682  0.43112871     0.08610
H920        H  0.28036891  0.57036870  0.42736244     0.06140
H921        H  0.25078651  0.60797116  0.39246173     0.05990
O922        O  0.14972801  0.37972780  0.39900391    -0.57920
C923        C  0.13920018  0.36696794  0.33950308     0.74710
O924        O  0.10133279  0.35171759  0.38205898    -0.59070
C925        C  0.13841857  0.38392384  0.41175704     0.74680
C926        C  0.11096912  0.41082181  0.36692192     0.77080
Cd927      Cd  0.12539854  0.37512433  0.37560851     1.37460
O928        O  0.15021466  0.37219283  0.35201518    -0.57910
O929        O  0.12795901  0.40739609  0.36841416    -0.56720
C930        C  0.11279325  0.33883652  0.38506189     0.77040
O931        O  0.10010395  0.39730518  0.36938328    -0.59090
O932        O  0.12242365  0.36554942  0.34396381    -0.57550
O933        O  0.12163308  0.38425742  0.40733223    -0.57540
O934        O  0.12962924  0.34305107  0.38363374    -0.56710
O935        O  0.35252361  0.64828894  0.63124557    -0.57920
C936        C  0.36410029  0.58875651  0.61658940     0.74710
O937        O  0.40134949  0.63194370  0.60288975    -0.59070
C938        C  0.36394099  0.66103877  0.63491950     0.74680
C939        C  0.39052716  0.61589327  0.66149456     0.77080
Cd940      Cd  0.37688977  0.62503175  0.62578494     1.37470
O941        O  0.35265884  0.60135993  0.62078333    -0.57910
O942        O  0.37376307  0.61948448  0.65864835    -0.56720
C943        C  0.39010832  0.63442402  0.58973050     0.77040
O944        O  0.40141778  0.61691493  0.64777048    -0.59090
O945        O  0.38084855  0.59331374  0.61685503    -0.57550
O946        O  0.38082859  0.65685868  0.63422223    -0.57540
O947        O  0.37321099  0.63272585  0.59364792    -0.56710
O948        O  0.39966361  0.87074376  0.60184267    -0.57920
C949        C  0.34138776  0.88686928  0.61334800     0.74710
O950        O  0.37132898  0.85162104  0.65107820    -0.59070
C951        C  0.41146131  0.86362750  0.61260875     0.74680
C952        C  0.38762114  0.91049612  0.63980193     0.77080
Cd953      Cd  0.37648922  0.87516979  0.62666089     1.37470
O954        O  0.35326192  0.88028272  0.60225965    -0.57910
O955        O  0.38848244  0.90586093  0.62303506    -0.56720
C956        C  0.36510742  0.83982267  0.63976459     0.77040
O957        O  0.38201202  0.89834055  0.65117915    -0.59090
O958        O  0.34588482  0.88783307  0.63013933    -0.57550
O959        O  0.40693307  0.86194208  0.62937470    -0.57540
O960        O  0.36382313  0.84476539  0.62309170    -0.56710
C961        C  0.48572889  0.73933166  0.49899192     0.03030
C962        C  0.48475548  0.75427449  0.51114397    -0.13120
C963        C  0.49975636  0.76604374  0.51323530     0.00530
C964        C  0.51546184  0.76373571  0.50240935    -0.11650
C965        C  0.51586724  0.75050893  0.48834308     0.03020
C966        C  0.50069914  0.73864549  0.48665148    -0.11070
H967        H  0.47255800  0.75660241  0.51936864     0.08610
H968        H  0.52717163  0.77251571  0.50495114     0.06140
H969        H  0.50069107  0.72872201  0.47566424     0.05990
C970        C  0.41109876  0.65935027  0.51661681     0.03030
C971        C  0.42612336  0.67136049  0.51573937    -0.13120
C972        C  0.43048696  0.68090209  0.49940337     0.00530
C973        C  0.41980040  0.67752066  0.48369090    -0.11650
C974        C  0.40588405  0.66416848  0.48376671     0.03020
C975        C  0.40144680  0.65526514  0.50042706    -0.11070
H976        H  0.43406955  0.67353460  0.52809344     0.08610
H977        H  0.42249606  0.68503527  0.47114648     0.06140
H978        H  0.39040391  0.64528192  0.50084714     0.05990
C979        C  0.51781899  0.84044609  0.59094983     0.03030
C980        C  0.50092422  0.84712082  0.59792914    -0.13120
C981        C  0.48420940  0.84140525  0.59007565     0.00530
C982        C  0.48435134  0.82855539  0.57581438    -0.11650
C983        C  0.50088897  0.82144795  0.56925438     0.03020
C984        C  0.51752361  0.82756405  0.57654361    -0.11070
H985        H  0.50071642  0.85657116  0.60941777     0.08610
H986        H  0.47149778  0.82382516  0.56999769     0.06140
H987        H  0.53025500  0.82218639  0.57095232     0.05990
C988        C  0.59080448  0.76742425  0.40818255     0.03030
C989        C  0.57615379  0.76698450  0.42069280    -0.13120
C990        C  0.57226556  0.75099694  0.43088474     0.00530
C991        C  0.58156625  0.73473071  0.42605250    -0.11650
C992        C  0.59471700  0.73436943  0.41183963     0.03020
C993        C  0.60005587  0.75110971  0.40367155    -0.11070
H994        H  0.56832899  0.77942572  0.42287309     0.08610
H995        H  0.57857147  0.72208228  0.43326472     0.06140
H996        H  0.61136815  0.75151647  0.39395094     0.05990
O997        O  0.61911173  0.90082252  0.64832294    -0.57920
C998        C  0.63567708  0.88954308  0.58948621     0.74710
O999        O  0.64940717  0.85152768  0.63204022    -0.59070
C1000       C  0.61710340  0.88956631  0.66165208     0.74680
C1001       C  0.59072270  0.86211375  0.61589281     0.77080
Cd1002     Cd  0.62642502  0.87609614  0.62555567     1.37460
O1003       O  0.63332043  0.90064431  0.60280990    -0.57910
O1004       O  0.59449620  0.87910452  0.61658207    -0.56720
C1005       C  0.66249444  0.86289653  0.63443020     0.77040
O1006       O  0.60369565  0.85119797  0.62017122    -0.59090
O1007       O  0.63365874  0.87262864  0.59322091    -0.57550
O1008       O  0.61994940  0.87281761  0.65799992    -0.57540
O1009       O  0.65867793  0.87970319  0.63202724    -0.56710
O1010       O  0.60054584  0.85223089  0.37858457    -0.57920
C1011       C  0.61147741  0.91140682  0.36442851     0.74710
O1012       O  0.64871555  0.88380645  0.39776795    -0.59070
C1013       C  0.61185701  0.84012215  0.38422572     0.74680
C1014       C  0.63846054  0.86584259  0.33916152     0.77080
Cd1015     Cd  0.62473803  0.87601459  0.37486588     1.37470
O1016       O  0.60029698  0.89940864  0.37063371    -0.57910
O1017       O  0.62150620  0.86735349  0.34288315    -0.56720
C1018       C  0.63722978  0.88680589  0.41071373     0.77040
O1019       O  0.64952558  0.86899645  0.35232731    -0.59090
O1020       O  0.62825331  0.90692728  0.36343116    -0.57550
O1021       O  0.62852319  0.84491511  0.38557670    -0.57540
O1022       O  0.62047295  0.88435647  0.40685538    -0.56710
C1023       C  0.65990786  0.23420944  0.34055758     0.03030
C1024       C  0.65276466  0.25112091  0.34687865    -0.13120
C1025       C  0.65927150  0.26790688  0.33950504     0.00530
C1026       C  0.67102585  0.26741285  0.32416215    -0.11650
C1027       C  0.67853480  0.25079918  0.31802445     0.03020
C1028       C  0.67368018  0.23448566  0.32697878    -0.11070
H1029       H  0.64234753  0.25127295  0.35753108     0.08610
H1030       H  0.67474416  0.28010646  0.31724449     0.06140
H1031       H  0.68034420  0.22178705  0.32296329     0.05990
C1032       C  0.76386323  0.23797969  0.25047466     0.03030
C1033       C  0.74790402  0.23608794  0.26135078    -0.13120
C1034       C  0.73497063  0.25030877  0.26220928     0.00530
C1035       C  0.73640045  0.26528713  0.25024647    -0.11650
C1036       C  0.75131393  0.26661105  0.23821881     0.03020
C1037       C  0.76532558  0.25346802  0.23885945    -0.11070
H1038       H  0.74572820  0.22394356  0.26970035     0.08610
H1039       H  0.72591856  0.27588037  0.25031294     0.06140
H1040       H  0.77730136  0.25552642  0.23022121     0.05990
C1041       C  0.83740152  0.15695234  0.23372451     0.03030
C1042       C  0.82374440  0.17056295  0.23396502    -0.13120
C1043       C  0.82051215  0.18121076  0.24978896     0.00530
C1044       C  0.83029559  0.17695313  0.26591094    -0.11650
C1045       C  0.84299488  0.16249846  0.26632327     0.03020
C1046       C  0.84671643  0.15272542  0.25010362    -0.11070
H1047       H  0.81603259  0.17318073  0.22156290     0.08610
H1048       H  0.82793111  0.18468432  0.27839348     0.06140
H1049       H  0.85696319  0.14191536  0.25019892     0.05990
C1050       C  0.73387244  0.33981316  0.15890307     0.03030
C1051       C  0.75071547  0.34754658  0.15306816    -0.13120
C1052       C  0.76721761  0.34287879  0.16213985     0.00530
C1053       C  0.76649336  0.33040340  0.17688818    -0.11650
C1054       C  0.75001650  0.32202244  0.18197662     0.03020
C1055       C  0.73373396  0.32673417  0.17307567    -0.11070
H1056       H  0.75089471  0.35704291  0.14156211     0.08610
H1057       H  0.77893784  0.32670879  0.18416742     0.06140
H1058       H  0.72091059  0.32045649  0.17741300     0.05990
O1059       O  0.12146448  0.85066997  0.60311577    -0.57920
C1060       C  0.13679069  0.86367945  0.66153341     0.74710
O1061       O  0.15058283  0.90032041  0.61992414    -0.59070
C1062       C  0.11843275  0.86145512  0.58962833     0.74680
C1063       C  0.09129691  0.88934979  0.63454266     0.77080
Cd1064     Cd  0.12719214  0.87602139  0.62524719     1.37460
O1065       O  0.13198008  0.85219950  0.64924133    -0.57910
O1066       O  0.09570296  0.87251991  0.63491043    -0.56720
C1067       C  0.16264808  0.88890812  0.61436342     0.77040
O1068       O  0.10377145  0.90066208  0.62966046    -0.59090
O1069       O  0.13755714  0.88032034  0.65650658    -0.57550
O1070       O  0.11918647  0.87850812  0.59310980    -0.57540
O1071       O  0.15825978  0.87205853  0.61435037    -0.56710
C1072       C  0.00284837  0.73546726  0.48868133     0.03030
C1073       C  0.01637396  0.74916344  0.48903808    -0.13120
C1074       C  0.01389595  0.76521966  0.49953608     0.00530
C1075       C  0.99829474  0.76637860  0.51100844    -0.11650
C1076       C  0.98574801  0.75183122  0.51208529     0.03020
C1077       C  0.98774887  0.73664816  0.50053695    -0.11070
H1078       H  0.02866539  0.74725367  0.48085783     0.08610
H1079       H  0.99591059  0.77838230  0.51945659     0.06140
H1080       H  0.97747436  0.72585648  0.50069518     0.05990
C1081       C  0.91119335  0.76785107  0.59104470     0.03030
C1082       C  0.92621954  0.76749683  0.57880249    -0.13120
C1083       C  0.93167345  0.75122008  0.57019226     0.00530
C1084       C  0.92270864  0.73483092  0.57465464    -0.11650
C1085       C  0.90928106  0.73423848  0.58852851     0.03020
C1086       C  0.90299855  0.75094354  0.59614795    -0.11070
H1087       H  0.93349385  0.78008829  0.57550818     0.08610
H1088       H  0.92654078  0.72229528  0.56758716     0.06140
H1089       H  0.89174604  0.75069303  0.60583775     0.05990
C1090       C  0.09477285  0.83877181  0.51679398     0.03030
C1091       C  0.08130528  0.82497821  0.51653442    -0.13120
C1092       C  0.07081512  0.82170269  0.50065838     0.00530
C1093       C  0.07546057  0.83125904  0.48441507    -0.11650
C1094       C  0.09059396  0.84311882  0.48378531     0.03020
C1095       C  0.09994222  0.84727134  0.50014039    -0.11070
H1096       H  0.07876957  0.81715346  0.52895482     0.08610
H1097       H  0.06770265  0.82913868  0.47192323     0.06140
H1098       H  0.11109420  0.85713886  0.49992035     0.05990
C1099       C  0.98411640  0.66222857  0.41001008     0.03030
C1100       C  0.00084591  0.65463088  0.40371578    -0.13120
C1101       C  0.01770703  0.66020082  0.41138129     0.00530
C1102       C  0.01764727  0.67322179  0.42554305    -0.11650
C1103       C  0.00117036  0.68048844  0.43213011     0.03020
C1104       C  0.98446180  0.67476508  0.42468271    -0.11070
H1105       H  0.00076412  0.64450979  0.39281289     0.08610
H1106       H  0.03050647  0.67796797  0.43132468     0.06140
H1107       H  0.97176361  0.68023752  0.43023909     0.05990
O1108       O  0.87107796  0.89938967  0.60120677    -0.57920
C1109       C  0.88698468  0.84111988  0.61276473     0.74710
O1110       O  0.89936872  0.88353490  0.65046661    -0.59070
C1111       C  0.86852568  0.91259607  0.61238592     0.74680
C1112       C  0.84086280  0.86741363  0.63860983     0.77080
Cd1113     Cd  0.87700601  0.87681915  0.62598458     1.37470
O1114       O  0.88316868  0.85405628  0.60157000    -0.57910
O1115       O  0.84495176  0.86994939  0.62185276    -0.56720
C1116       C  0.91274971  0.88546674  0.63927338     0.77040
O1117       O  0.85372910  0.86983387  0.65019340    -0.59090
O1118       O  0.88558222  0.84486973  0.62973574    -0.57550
O1119       O  0.87043867  0.90924372  0.62937794    -0.57540
O1120       O  0.90915070  0.88342758  0.62234997    -0.56710
O1121       O  0.86871385  0.15112752  0.35175561    -0.57920
C1122       C  0.88412741  0.14118748  0.41087941     0.74710
O1123       O  0.85372487  0.10278509  0.38319024    -0.59070
C1124       C  0.86616324  0.13944570  0.33896966     0.74680
C1125       C  0.91208021  0.11455346  0.36614498     0.77080
Cd1126     Cd  0.87584141  0.12737232  0.37504274     1.37460
O1127       O  0.88155336  0.15234508  0.39759035    -0.57910
O1128       O  0.90761500  0.13136600  0.36610883    -0.56720
C1129       C  0.84029414  0.11389587  0.38469562     0.77040
O1130       O  0.89933622  0.10319075  0.37015569    -0.59090
O1131       O  0.88293153  0.12424450  0.40714403    -0.57550
O1132       O  0.86871087  0.12271352  0.34310842    -0.57540
O1133       O  0.84330979  0.13066578  0.38112663    -0.56710
C1134       C  0.91397726  0.01625916  0.15613081     0.03030
C1135       C  0.90573265  0.99953956  0.15086873    -0.13120
C1136       C  0.90940450  0.98329987  0.16072260     0.00530
C1137       C  0.92003937  0.98418395  0.17668532    -0.11650
C1138       C  0.92930286  0.00036904  0.18157893     0.03020
C1139       C  0.92643784  0.01625443  0.17085872    -0.11070
H1140       H  0.89673940  0.99914071  0.13903031     0.08610
H1141       H  0.92156963  0.97182913  0.18489212     0.06140
H1142       H  0.93363455  0.02880701  0.17409795     0.05990
C1143       C  0.09117920  0.91045566  0.23314781     0.03030
C1144       C  0.07633357  0.92274286  0.23322224    -0.13120
C1145       C  0.06926658  0.92972524  0.24977631     0.00530
C1146       C  0.07650693  0.92329612  0.26649287    -0.11650
C1147       C  0.09008420  0.90962735  0.26671346     0.03020
C1148       C  0.09777665  0.90360334  0.25001500    -0.11070
H1149       H  0.07051888  0.92721415  0.22025246     0.08610
H1150       H  0.07171444  0.92896732  0.27941780     0.06140
H1151       H  0.10888899  0.89369601  0.25018351     0.05990
C1152       C  0.99956787  0.01190670  0.26579239     0.03030
C1153       C  0.98490054  0.01029399  0.25348120    -0.13120
C1154       C  0.98625302  0.99909340  0.23777154     0.00530
C1155       C  0.00248250  0.98887591  0.23511540    -0.11650
C1156       C  0.01621563  0.98877516  0.24855025     0.03020
C1157       C  0.01511813  0.00085779  0.26341274    -0.11070
H1158       H  0.97250093  0.01805341  0.25620634     0.08610
H1159       H  0.00434952  0.98051523  0.22296986     0.06140
H1160       H  0.02634879  0.00151933  0.27312625     0.05990
C1161       C  0.01742116  0.08973667  0.34000745     0.03030
C1162       C  0.00068815  0.09665704  0.34705117    -0.13120
C1163       C  0.98371546  0.08952692  0.34095527     0.00530
C1164       C  0.98370787  0.07663119  0.32664112    -0.11650
C1165       C  0.00017798  0.06945004  0.31992224     0.03020
C1166       C  0.01688937  0.07572769  0.32678783    -0.11070
H1167       H  0.00087119  0.10737340  0.35735498     0.08610
H1168       H  0.97084666  0.07179751  0.32096590     0.06140
H1169       H  0.02954634  0.06981940  0.32156770     0.05990
O1170       O  0.14940793  0.13025353  0.34964980    -0.57920
C1171       C  0.09067006  0.11398026  0.36091124     0.74710
O1172       O  0.13271436  0.10198527  0.39886940    -0.59070
C1173       C  0.16168965  0.13528660  0.36102066     0.74680
C1174       C  0.11567300  0.16046378  0.38697232     0.77080
Cd1175     Cd  0.12618389  0.12470657  0.37419346     1.37470
O1176       O  0.10325589  0.11902783  0.34978130    -0.57910
O1177       O  0.11768317  0.15658472  0.37011141    -0.56720
C1178       C  0.13779393  0.08959486  0.38757534     0.77040
O1179       O  0.11893925  0.14757472  0.39842622    -0.59090
O1180       O  0.09483180  0.11409181  0.37782808    -0.57550
O1181       O  0.15736249  0.13501250  0.37792759    -0.57540
O1182       O  0.13699405  0.09357270  0.37061646    -0.56710
C1183       C  0.59181768  0.23399629  0.91114698     0.03030
C1184       C  0.57665527  0.23406055  0.92312641    -0.13120
C1185       C  0.56970111  0.25055273  0.93019755     0.00530
C1186       C  0.57738447  0.26722212  0.92431960    -0.11650
C1187       C  0.59112649  0.26756063  0.91080364     0.03020
C1188       C  0.59863101  0.25091114  0.90443033    -0.11070
H1189       H  0.57054006  0.22113484  0.92737627     0.08610
H1190       H  0.57249639  0.28006531  0.93005809     0.06140
H1191       H  0.60986122  0.25117301  0.89460275     0.05990
C1192       C  0.49948877  0.26664549  0.01236468     0.03030
C1193       C  0.51435256  0.26539869  0.00025749    -0.13120
C1194       C  0.51596449  0.25024572  0.98863959     0.00530
C1195       C  0.50331433  0.23580979  0.98994994    -0.11650
C1196       C  0.48778045  0.23721377  0.00153402     0.03020
C1197       C  0.48558512  0.25337621  0.01194955    -0.11070
H1198       H  0.52467807  0.27614164  0.99994314     0.08610
H1199       H  0.50559584  0.22372793  0.98159402     0.06140
H1200       H  0.47340183  0.25555572  0.02021419     0.05990
C1201       C  0.51633934  0.34216742  0.08936656     0.03030
C1202       C  0.49965448  0.34879262  0.09668379    -0.13120
C1203       C  0.48279786  0.34352123  0.08886598     0.00530
C1204       C  0.48265916  0.33054029  0.07462358    -0.11650
C1205       C  0.49913201  0.32390479  0.06712186     0.03020
C1206       C  0.51585623  0.33000944  0.07441464    -0.11070
H1207       H  0.49976344  0.35816435  0.10824407     0.08610
H1208       H  0.46964067  0.32554783  0.06947365     0.06140
H1209       H  0.52863992  0.32514765  0.06847125     0.05990
C1210       C  0.41170371  0.15824831  0.01740389     0.03030
C1211       C  0.42577284  0.17142188  0.01731107    -0.13120
C1212       C  0.43071094  0.18086010  0.00111640     0.00530
C1213       C  0.42085902  0.17719512  0.98496542    -0.11650
C1214       C  0.40767180  0.16313884  0.98433392     0.03020
C1215       C  0.40256140  0.15430844  0.00083925    -0.11070
H1216       H  0.43282633  0.17430152  0.03003713     0.08610
H1217       H  0.42389092  0.18491052  0.97259037     0.06140
H1218       H  0.39174697  0.14408685  0.00071976     0.05990
O1219       O  0.36955744  0.15113734  0.85326026    -0.57920
C1220       C  0.38545535  0.14090829  0.91076484     0.74710
O1221       O  0.35417429  0.10107021  0.88225614    -0.59070
C1222       C  0.36798828  0.14034472  0.83961826     0.74680
C1223       C  0.41196121  0.11175891  0.86589274     0.77080
Cd1224     Cd  0.37646229  0.12613450  0.87523738     1.37470
O1225       O  0.38151056  0.15158855  0.89747876    -0.57910
O1226       O  0.40835226  0.12879664  0.86641445    -0.56720
C1227       C  0.34066582  0.11198999  0.88417737     0.77040
O1228       O  0.39881480  0.10098539  0.87005921    -0.59090
O1229       O  0.38511222  0.12388592  0.90720979    -0.57550
O1230       O  0.37067222  0.12338741  0.84247940    -0.57540
O1231       O  0.34406618  0.12885945  0.88159418    -0.56710
C1232       C  0.98663033  0.23872003  0.49907293     0.03030
C1233       C  0.00283650  0.23622277  0.48875018    -0.13120
C1234       C  0.01661451  0.24962837  0.48879814     0.00530
C1235       C  0.01570224  0.26418442  0.50126717    -0.11650
C1236       C  0.00017056  0.26637535  0.51248813     0.03020
C1237       C  0.98537506  0.25419956  0.51060463    -0.11070
H1238       H  0.00468290  0.22419295  0.48023326     0.08610
H1239       H  0.02707095  0.27374898  0.50214135     0.06140
H1240       H  0.97299339  0.25678570  0.51848109     0.05990
C1241       C  0.01833402  0.33980042  0.59124487     0.03030
C1242       C  0.01778966  0.32517402  0.57867093    -0.13120
C1243       C  0.00116192  0.31901109  0.57152457     0.00530
C1244       C  0.98468442  0.32676926  0.57746437    -0.11650
C1245       C  0.98458210  0.34148648  0.58991546     0.03020
C1246       C  0.00158613  0.34830721  0.59643192    -0.11070
H1247       H  0.03037846  0.31853976  0.57424097     0.08610
H1248       H  0.97188554  0.32142142  0.57209878     0.06140
H1249       H  0.00177332  0.36021077  0.60533629     0.05990
C1250       C  0.91260020  0.15846530  0.51657790     0.03030
C1251       C  0.90393152  0.15341839  0.50008695    -0.13120
C1252       C  0.90810999  0.16270895  0.48361209     0.00530
C1253       C  0.92015264  0.17770134  0.48396906    -0.11650
C1254       C  0.92971885  0.18232224  0.50008018     0.03020
C1255       C  0.92644576  0.17186967  0.51608513    -0.11070
H1256       H  0.89390488  0.14240612  0.50009162     0.08610
H1257       H  0.92232424  0.18544242  0.47140075     0.06140
H1258       H  0.93419689  0.17452667  0.52845529     0.05990
C1259       C  0.09243901  0.26622837  0.41126844     0.03030
C1260       C  0.09954809  0.24961531  0.40440357    -0.13120
C1261       C  0.09373752  0.23275616  0.41196586     0.00530
C1262       C  0.08041210  0.23261486  0.42596746    -0.11650
C1263       C  0.07361911  0.24911088  0.43327908     0.03020
C1264       C  0.07970327  0.26585509  0.42576396    -0.11070
H1265       H  0.10958180  0.24981344  0.39334489     0.08610
H1266       H  0.07528406  0.21957147  0.43107975     0.06140
H1267       H  0.07459454  0.27872687  0.43126282     0.05990
O1268       O  0.90191135  0.60398188  0.63179331    -0.57920
C1269       C  0.88872424  0.66113558  0.61437250     0.74710
O1270       O  0.85088963  0.61710330  0.60405029    -0.59070
C1271       C  0.89152095  0.58996427  0.63302898     0.74680
C1272       C  0.86359640  0.63430791  0.66172705     0.77080
Cd1273     Cd  0.87615365  0.62538610  0.62514282     1.37460
O1274       O  0.90004818  0.64830077  0.61795873    -0.57910
O1275       O  0.88036268  0.63377558  0.65718866    -0.56720
C1276       C  0.86116308  0.61695105  0.58981802     0.77040
O1277       O  0.85216127  0.63067470  0.64901938    -0.59090
O1278       O  0.87186315  0.65725443  0.61642608    -0.57550
O1279       O  0.87461440  0.59236823  0.62993134    -0.57540
O1280       O  0.87790967  0.62106415  0.59200964    -0.56710
O1281       O  0.85279746  0.38061672  0.60005153    -0.57920
C1282       C  0.91104961  0.36542193  0.61090817     0.74710
O1283       O  0.87897616  0.39702537  0.65097640    -0.59070
C1284       C  0.83984919  0.38519110  0.61093405     0.74680
C1285       C  0.86449581  0.33932286  0.63806873     0.77080
Cd1286     Cd  0.87524097  0.37482626  0.62511142     1.37470
O1287       O  0.89838471  0.37061150  0.60005632    -0.57910
O1288       O  0.86341850  0.34409449  0.62134340    -0.56720
C1289       C  0.88372695  0.41016539  0.64038078     0.77040
O1290       O  0.87097550  0.35103377  0.64928277    -0.59090
O1291       O  0.90682208  0.36478892  0.62782661    -0.57550
O1292       O  0.84362981  0.38477893  0.62793690    -0.57540
O1293       O  0.88461139  0.40643884  0.62337937    -0.56710
C1294       C  0.76701363  0.51230054  0.49789918     0.03030
C1295       C  0.75163040  0.51437310  0.48638367    -0.13120
C1296       C  0.73594730  0.50322037  0.48847150     0.00530
C1297       C  0.73560960  0.49032108  0.50291537    -0.11650
C1298       C  0.75098543  0.48762875  0.51397179     0.03020
C1299       C  0.76672928  0.49821002  0.51120176    -0.11070
H1300       H  0.75184881  0.52471262  0.47577959     0.08610
H1301       H  0.72345510  0.48213645  0.50559381     0.06140
H1302       H  0.77860795  0.49554718  0.51972613     0.05990
C1303       C  0.83950953  0.59324025  0.51678688     0.03030
C1304       C  0.82493632  0.58063526  0.51504460    -0.13120
C1305       C  0.82325973  0.56937720  0.49943697     0.00530
C1306       C  0.83441291  0.57326385  0.48409383    -0.11650
C1307       C  0.84718955  0.58762553  0.48448891     0.03020
C1308       C  0.85051236  0.59683727  0.50114648    -0.11070
H1309       H  0.81531516  0.57905928  0.52632345     0.08610
H1310       H  0.83298580  0.56549317  0.47150862     0.06140
H1311       H  0.86167697  0.60661955  0.50175192     0.05990
C1312       C  0.73345769  0.41160945  0.59061389     0.03030
C1313       C  0.75014183  0.40368685  0.59643653    -0.13120
C1314       C  0.76703754  0.41007442  0.58919169     0.00530
C1315       C  0.76688698  0.42403704  0.57580317    -0.11650
C1316       C  0.75034520  0.43161158  0.56977457     0.03020
C1317       C  0.73374017  0.42556286  0.57729629    -0.11070
H1318       H  0.74993916  0.39259342  0.60641654     0.08610
H1319       H  0.77969035  0.42912411  0.57005856     0.06140
H1320       H  0.72096101  0.43158020  0.57258215     0.05990
C1321       C  0.66303341  0.48420541  0.40808833     0.03030
C1322       C  0.67780949  0.48598141  0.42038737    -0.13120
C1323       C  0.67971956  0.50160036  0.43156524     0.00530
C1324       C  0.66852470  0.51688550  0.42794164    -0.11650
C1325       C  0.65526541  0.51636091  0.41405839     0.03020
C1326       C  0.65181386  0.49969383  0.40491364    -0.11070
H1327       H  0.68742994  0.47473396  0.42180125     0.08610
H1328       H  0.67027398  0.52948846  0.43560020     0.06140
H1329       H  0.64043218  0.49896829  0.39542541     0.05990
O1330       O  0.62130291  0.64781525  0.40051499    -0.57920
C1331       C  0.63485659  0.58918168  0.38939886     0.74710
O1332       O  0.60414936  0.61699820  0.35127037    -0.59070
C1333       C  0.61694254  0.66081777  0.38961456     0.74680
C1334       C  0.66201343  0.63531813  0.36215915     0.77080
Cd1335     Cd  0.62621907  0.62522644  0.37574092     1.37460
O1336       O  0.63207428  0.60228325  0.40066483    -0.57910
O1337       O  0.65791387  0.63469707  0.37909524    -0.56720
C1338       C  0.59050278  0.61602081  0.36224482     0.77040
O1339       O  0.64932030  0.63120116  0.35088787    -0.59090
O1340       O  0.63322512  0.59307315  0.37252028    -0.57550
O1341       O  0.61695511  0.65697085  0.37259363    -0.57540
O1342       O  0.59336398  0.61988625  0.37897142    -0.56710
O1343       O  0.39879344  0.60064817  0.36980075    -0.57920
C1344       C  0.34017696  0.61156186  0.38325295     0.74710
O1345       O  0.38014480  0.65038323  0.39840868    -0.59070
C1346       C  0.41207030  0.61139716  0.36597429     0.74680
C1347       C  0.36790926  0.63983830  0.33926602     0.77080
Cd1348     Cd  0.37628894  0.62563854  0.37495877     1.37470
O1349       O  0.35363792  0.60061226  0.38109015    -0.57910
O1350       O  0.36972719  0.62280677  0.34237275    -0.56720
C1351       C  0.38391658  0.63915694  0.41133853     0.77040
O1352       O  0.37038275  0.65075277  0.35268783    -0.59090
O1353       O  0.34374480  0.62848892  0.38133144    -0.57550
O1354       O  0.40857066  0.62845857  0.36665452    -0.57540
O1355       O  0.38458432  0.62239925  0.40687051    -0.56710
C1356       C  0.40763567  0.48404388  0.16074103     0.03030
C1357       C  0.42075059  0.48429742  0.17483825    -0.13120
C1358       C  0.43013118  0.50049764  0.17948998     0.00530
C1359       C  0.42652238  0.51650438  0.16928224    -0.11650
C1360       C  0.41236360  0.51697444  0.15627390     0.03020
C1361       C  0.40273435  0.50072595  0.15227723    -0.11070
H1362       H  0.42368706  0.47167567  0.18213568     0.08610
H1363       H  0.43423127  0.52891055  0.17193367     0.06140
H1364       H  0.39162207  0.50105914  0.14241589     0.05990
C1365       C  0.48633876  0.50031519  0.23642541     0.03030
C1366       C  0.50234991  0.48967542  0.23432156    -0.13120
C1367       C  0.51587900  0.48968824  0.24791486     0.00530
C1368       C  0.51512102  0.50253984  0.26212224    -0.11650
C1369       C  0.50022415  0.51463632  0.26341509     0.03020
C1370       C  0.48529235  0.51241457  0.25151975    -0.11070
H1371       H  0.50425039  0.48092847  0.22246727     0.08610
H1372       H  0.52619597  0.50317031  0.27202605     0.06140
H1373       H  0.47306311  0.52050040  0.25400155     0.05990
C1374       C  0.51892909  0.58844837  0.34110019     0.03030
C1375       C  0.50233116  0.59345893  0.34998492    -0.13120
C1376       C  0.48512816  0.58852276  0.34245090     0.00530
C1377       C  0.48487009  0.57730047  0.32674250    -0.11650
C1378       C  0.50116731  0.57123642  0.31869548     0.03020
C1379       C  0.51799413  0.57768251  0.32511244    -0.11070
H1380       H  0.50284011  0.60110298  0.36273089     0.08610
H1381       H  0.47195209  0.57281061  0.32091655     0.06140
H1382       H  0.53037168  0.57390807  0.31773236     0.05990
C1383       C  0.59212732  0.41388187  0.26731271     0.03030
C1384       C  0.59964173  0.40747306  0.25058877    -0.13120
C1385       C  0.59141875  0.41209478  0.23365625     0.00530
C1386       C  0.57589320  0.42350291  0.23367533    -0.11650
C1387       C  0.56894040  0.43088934  0.25003115     0.03020
C1388       C  0.57689489  0.42572364  0.26678917    -0.11070
H1389       H  0.61184889  0.39897379  0.25078666     0.08610
H1390       H  0.56933419  0.42699669  0.22076090     0.06140
H1391       H  0.57128392  0.43107076  0.27949561     0.05990
O1392       O  0.37829554  0.39837412  0.15039693    -0.57920
C1393       C  0.36572125  0.33976439  0.13926966     0.74710
O1394       O  0.35101695  0.38009161  0.10088461    -0.59070
C1395       C  0.38352897  0.41103696  0.13944670     0.74680
C1396       C  0.41060703  0.36654783  0.11384813     0.77080
Cd1397     Cd  0.37410989  0.37560533  0.12573339     1.37470
O1398       O  0.36838015  0.35292328  0.15045888    -0.57910
O1399       O  0.40562771  0.36659668  0.13054475    -0.56720
C1400       C  0.33855162  0.38536848  0.11204110     0.77040
O1401       O  0.39831835  0.37083183  0.10212537    -0.59090
O1402       O  0.36654137  0.34366460  0.12227483    -0.57550
O1403       O  0.38418944  0.40691011  0.12251331    -0.57540
O1404       O  0.34277964  0.38600173  0.12891012    -0.56710
O1405       O  0.39947766  0.60290801  0.13233095    -0.57920
C1406       C  0.38851331  0.66160721  0.11698534     0.74710
O1407       O  0.35059383  0.61851570  0.10275625    -0.59070
C1408       C  0.38815053  0.58978057  0.13487967     0.74680
C1409       C  0.36072175  0.63432758  0.16144360     0.77080
Cd1410     Cd  0.37482213  0.62561875  0.12553000     1.37470
O1411       O  0.39956232  0.64829799  0.11958865    -0.57910
O1412       O  0.37767723  0.63432830  0.15748100    -0.56720
C1413       C  0.36201201  0.61565494  0.08976234     0.77040
O1414       O  0.34966970  0.63028342  0.14852976    -0.59090
O1415       O  0.37153595  0.65785503  0.11815579    -0.57550
O1416       O  0.37136558  0.59361405  0.13275157    -0.57540
O1417       O  0.37884827  0.61821529  0.09318810    -0.56710
C1418       C  0.34033689  0.58940764  0.01787634     0.03030
C1419       C  0.32577979  0.57674705  0.01736570    -0.13120
C1420       C  0.31852002  0.57075190  0.00057321     0.00530
C1421       C  0.32637863  0.57714808  0.98411548    -0.11650
C1422       C  0.34197817  0.58843972  0.98424166     0.03020
C1423       C  0.34881049  0.59473649  0.00121162    -0.11070
H1424       H  0.31998027  0.57164465  0.03013916     0.08610
H1425       H  0.32052191  0.57302677  0.97107109     0.06140
H1426       H  0.36070592  0.60367803  0.00144592     0.05990
C1427       C  0.15782933  0.51594878  0.91095544     0.03030
C1428       C  0.15087678  0.49900797  0.90482531    -0.13120
C1429       C  0.15823594  0.48239053  0.91159030     0.00530
C1430       C  0.17278776  0.48306969  0.92422256    -0.11650
C1431       C  0.18013791  0.49991222  0.93002142     0.03020
C1432       C  0.17252498  0.51628187  0.92328305    -0.11070
H1433       H  0.13962815  0.49878720  0.89511174     0.08610
H1434       H  0.17842347  0.47037518  0.92957252     0.06140
H1435       H  0.17803928  0.52941577  0.92761468     0.05990
C1436       C  0.23535584  0.50119845  0.98674583     0.03030
C1437       C  0.24925731  0.51444949  0.98636310    -0.13120
C1438       C  0.26329990  0.51387044  0.99940938     0.00530
C1439       C  0.26368912  0.49978400  0.01257450    -0.11650
C1440       C  0.24980547  0.48635543  0.01306071     0.03020
C1441       C  0.23537333  0.48749725  0.00032313    -0.11070
H1442       H  0.24915221  0.52516252  0.97595151     0.08610
H1443       H  0.27490623  0.49926047  0.02232359     0.06140
H1444       H  0.22414379  0.47773726  0.00087149     0.05990
C1445       C  0.23301793  0.40996370  0.09018581     0.03030
C1446       C  0.24977233  0.40304411  0.09685683    -0.13120
C1447       C  0.26649438  0.40993393  0.08991862     0.00530
C1448       C  0.26636743  0.42379263  0.07650519    -0.11650
C1449       C  0.24971450  0.43064840  0.06984556     0.03020
C1450       C  0.23309645  0.42364499  0.07658109    -0.11070
H1451       H  0.24980052  0.39239068  0.10731618     0.08610
H1452       H  0.27922938  0.42920321  0.07120367     0.06140
H1453       H  0.22021250  0.42896233  0.07135209     0.05990
C1454       C  0.23467521  0.74887207  0.26043386     0.03030
C1455       C  0.23385684  0.76061170  0.24514463    -0.13120
C1456       C  0.24917957  0.76302315  0.23377699     0.00530
C1457       C  0.26507909  0.75274662  0.23688685    -0.11650
C1458       C  0.26533037  0.73874916  0.25026184     0.03020
C1459       C  0.24986370  0.73689035  0.26187017    -0.11070
H1460       H  0.22153465  0.76845720  0.24237747     0.08610
H1461       H  0.27711742  0.75563250  0.22857390     0.06140
H1462       H  0.24973747  0.72618190  0.27210902     0.05990
C1463       C  0.16300751  0.76636993  0.34359254     0.03030
C1464       C  0.17564671  0.76624972  0.32889122    -0.13120
C1465       C  0.17887904  0.75019198  0.31856687     0.00530
C1466       C  0.16820052  0.73462827  0.32245272    -0.11650
C1467       C  0.15702082  0.73374558  0.33816993     0.03020
C1468       C  0.15433305  0.74975584  0.34867888    -0.11070
H1469       H  0.18280543  0.77881871  0.32548013     0.08610
H1470       H  0.16917268  0.72266172  0.31367984     0.06140
H1471       H  0.14557380  0.74932978  0.36075842     0.05990
C1472       C  0.26714982  0.84235411  0.16046196     0.03030
C1473       C  0.25038686  0.84820854  0.15275439    -0.13120
C1474       C  0.23379322  0.83984564  0.15823728     0.00530
C1475       C  0.23399160  0.82590344  0.17151787    -0.11650
C1476       C  0.25057133  0.82006602  0.17912294     0.03020
C1477       C  0.26710540  0.82802558  0.17341237    -0.11070
H1478       H  0.25024834  0.85916339  0.14261343     0.08610
H1479       H  0.22120454  0.81967032  0.17603811     0.06140
H1480       H  0.27992966  0.82316432  0.17919351     0.05990
C1481       C  0.33844647  0.65749900  0.23425318     0.03030
C1482       C  0.34655016  0.65189061  0.25087818    -0.13120
C1483       C  0.34248510  0.66138951  0.26722535     0.00530
C1484       C  0.33169216  0.67732705  0.26636860    -0.11650
C1485       C  0.32232577  0.68225481  0.25019129     0.03020
C1486       C  0.32524024  0.67149161  0.23438141    -0.11070
H1487       H  0.35604250  0.64042266  0.25102258     0.08610
H1488       H  0.33029478  0.68552019  0.27870508     0.06140
H1489       H  0.31773631  0.67418948  0.22186131     0.05990
O1490       O  0.37781426  0.59990416  0.85204125    -0.57920
C1491       C  0.36673523  0.61222773  0.91198532     0.74710
O1492       O  0.39829358  0.64956449  0.88116862    -0.59070
C1493       C  0.38260837  0.61081137  0.83913334     0.74680
C1494       C  0.33946514  0.63948171  0.86724485     0.77080
Cd1495     Cd  0.37523016  0.62498593  0.87545582     1.37470
O1496       O  0.37129890  0.60082892  0.89947827    -0.57910
O1497       O  0.34279428  0.62248880  0.86915113    -0.56720
C1498       C  0.41108920  0.63826044  0.88500152     0.77040
O1499       O  0.35308453  0.65029465  0.86909254    -0.59090
O1500       O  0.36583518  0.62890288  0.90710213    -0.57550
O1501       O  0.38440868  0.62750045  0.84359778    -0.57540
O1502       O  0.40718415  0.62135048  0.88373368    -0.56710
O1503       O  0.60000322  0.35231907  0.88044396    -0.57920
C1504       C  0.61255395  0.41192770  0.86514449     0.74710
O1505       O  0.64848272  0.38347059  0.89772985    -0.59070
C1506       C  0.61134016  0.34037509  0.88639924     0.74680
C1507       C  0.63780849  0.36503141  0.83992543     0.77080
Cd1508     Cd  0.62437770  0.37576494  0.87529252     1.37470
O1509       O  0.60073847  0.39929888  0.86813327    -0.57910
O1510       O  0.62112004  0.36893034  0.84285005    -0.56720
C1511       C  0.63731758  0.38610119  0.91100670     0.77040
O1512       O  0.64883244  0.36646968  0.85340047    -0.59090
O1513       O  0.62922015  0.40758669  0.86747790    -0.57550
O1514       O  0.62812154  0.34488209  0.88681176    -0.57540
O1515       O  0.62041244  0.38399834  0.90738692    -0.56710
O1516       O  0.64775828  0.62060040  0.90061213    -0.57920
C1517       C  0.58975435  0.63613910  0.88930735     0.74710
O1518       O  0.63150542  0.64877604  0.85057465    -0.59070
C1519       C  0.66052472  0.61565444  0.88968997     0.74680
C1520       C  0.61466513  0.59054911  0.86344914     0.77080
Cd1521     Cd  0.62518817  0.62628892  0.87575217     1.37470
O1522       O  0.60309345  0.63408590  0.90040151    -0.57910
O1523       O  0.61346308  0.59546926  0.88011442    -0.56720
C1524       C  0.63510504  0.66181283  0.86164575     0.77040
O1525       O  0.62075133  0.60233020  0.85193529    -0.59090
O1526       O  0.59287550  0.63339913  0.87236999    -0.57550
O1527       O  0.65659623  0.61580869  0.87272764    -0.57540
O1528       O  0.63381731  0.65836766  0.87867163    -0.56710
C1529       C  0.59017960  0.51835442  0.84199444     0.03030
C1530       C  0.59682895  0.50163972  0.84912664    -0.13120
C1531       C  0.59034939  0.48486736  0.84208907     0.00530
C1532       C  0.57824585  0.48494827  0.82717226    -0.11650
C1533       C  0.57164862  0.50152425  0.81986332     0.03020
C1534       C  0.57729128  0.51815705  0.82772652    -0.11070
H1535       H  0.60658149  0.50168890  0.86035269     0.08610
H1536       H  0.57387703  0.47197567  0.82132152     0.06140
H1537       H  0.57175044  0.53104283  0.82269313     0.05990
C1538       C  0.51763109  0.40975206  0.66220606     0.03030
C1539       C  0.50099246  0.40305153  0.65498337    -0.13120
C1540       C  0.48408089  0.40920473  0.66213292     0.00530
C1541       C  0.48390659  0.42326468  0.67527174    -0.11650
C1542       C  0.50030660  0.43013486  0.68251805     0.03020
C1543       C  0.51704534  0.42274246  0.67645009    -0.11070
H1544       H  0.50117384  0.39296547  0.64404428     0.08610
H1545       H  0.47087432  0.42881928  0.67991179     0.06140
H1546       H  0.52975113  0.42731659  0.68265477     0.05990
C1547       C  0.49942469  0.48502058  0.73967336     0.03030
C1548       C  0.51433675  0.48589221  0.75165128    -0.13120
C1549       C  0.51616318  0.50080270  0.76354160     0.00530
C1550       C  0.50386345  0.51551955  0.76248006    -0.11650
C1551       C  0.48843148  0.51464971  0.75089337     0.03020
C1552       C  0.48593233  0.49874438  0.74013909    -0.11070
H1553       H  0.52445816  0.47495541  0.75177403     0.08610
H1554       H  0.50628064  0.52743265  0.77103560     0.06140
H1555       H  0.47384739  0.49714600  0.73168982     0.05990
C1556       C  0.41215087  0.59212456  0.73452085     0.03030
C1557       C  0.40071839  0.59385798  0.75010954    -0.13120
C1558       C  0.40560587  0.58560632  0.76697263     0.00530
C1559       C  0.42085303  0.57379987  0.76746757    -0.11650
C1560       C  0.43249856  0.57191892  0.75211124     0.03020
C1561       C  0.42849960  0.58205894  0.73615972    -0.11070
H1562       H  0.38810358  0.60167795  0.74929136     0.08610
H1563       H  0.42378471  0.56637147  0.77999362     0.06140
H1564       H  0.43786474  0.58158743  0.72454943     0.05990
O1565       O  0.62088033  0.35047860  0.60282765    -0.57920
C1566       C  0.63596402  0.36118759  0.66130160     0.74710
O1567       O  0.64918235  0.39989120  0.62164569    -0.59070
C1568       C  0.61678796  0.36170741  0.58999893     0.74680
C1569       C  0.59041637  0.38863239  0.63629417     0.77080
Cd1570     Cd  0.62607101  0.37504461  0.62585977     1.37460
O1571       O  0.63112478  0.35005578  0.64873001    -0.57910
O1572       O  0.59448782  0.37170631  0.63597573    -0.56720
C1573       C  0.66127308  0.38908325  0.61506890     0.77040
O1574       O  0.60306924  0.39965346  0.63128152    -0.59090
O1575       O  0.63648011  0.37809311  0.65720007    -0.57550
O1576       O  0.61664820  0.37860811  0.59418699    -0.57540
O1577       O  0.65707079  0.37224123  0.61389985    -0.56710
O1578       O  0.10219439  0.87007432  0.39756106    -0.57920
C1579       C  0.11493249  0.88698724  0.33911820     0.74710
O1580       O  0.15186866  0.89937218  0.38028351    -0.59070
C1581       C  0.11315493  0.86683048  0.41081336     0.74680
C1582       C  0.14010198  0.83923033  0.36704266     0.77080
Cd1583     Cd  0.12745701  0.87596111  0.37510317     1.37470
O1584       O  0.10348499  0.88291939  0.35181018    -0.57910
O1585       O  0.12354614  0.84432409  0.36572014    -0.56720
C1586       C  0.14051426  0.91135370  0.38617143     0.77040
O1587       O  0.15153870  0.85166154  0.37162184    -0.59090
O1588       O  0.13175385  0.88567951  0.34328397    -0.57550
O1589       O  0.13015834  0.86762901  0.40709830    -0.57540
O1590       O  0.12376340  0.90672360  0.38688947    -0.56710
C1591       C  0.23547535  0.90928518  0.59021111     0.03030
C1592       C  0.25208669  0.90276068  0.59762514    -0.13120
C1593       C  0.26891831  0.90919799  0.59050474     0.00530
C1594       C  0.26903347  0.92237336  0.57642237    -0.11650
C1595       C  0.25259249  0.92831982  0.56846779     0.03020
C1596       C  0.23587985  0.92169405  0.57544343    -0.11070
H1597       H  0.25191784  0.89280381  0.60874773     0.08610
H1598       H  0.28202589  0.92781627  0.57151092     0.06140
H1599       H  0.22305900  0.92637838  0.56950680     0.05990
C1600       C  0.26418238  0.01356791  0.50096851     0.03030
C1601       C  0.26638181  0.99741523  0.51145599    -0.13120
C1602       C  0.25240319  0.98424781  0.51221359     0.00530
C1603       C  0.23744616  0.98556607  0.50034780    -0.11650
C1604       C  0.23595149  0.00060056  0.48847273     0.03020
C1605       C  0.24863253  0.01501724  0.48953377    -0.11070
H1606       H  0.27857477  0.99524820  0.51962289     0.08610
H1607       H  0.22701059  0.97492593  0.50034852     0.06140
H1608       H  0.24640781  0.02708970  0.48109280     0.05990
C1609       C  0.33996317  0.09240314  0.51712942     0.03030
C1610       C  0.32571084  0.07939523  0.51680898    -0.13120
C1611       C  0.32102776  0.07010865  0.50051767     0.00530
C1612       C  0.33109180  0.07405599  0.48446862    -0.11650
C1613       C  0.34367886  0.08855315  0.48404839     0.03020
C1614       C  0.34837889  0.09756095  0.50043004    -0.11070
H1615       H  0.31842281  0.07642491  0.52947092     0.08610
H1616       H  0.32872567  0.06637643  0.47197129     0.06140
H1617       H  0.35836745  0.10859986  0.50012132     0.05990
C1618       C  0.16028226  0.98377078  0.41174337     0.03030
C1619       C  0.15413554  0.00037400  0.40395147    -0.13120
C1620       C  0.16045719  0.01721714  0.41094762     0.00530
C1621       C  0.17355369  0.01736437  0.42498786    -0.11650
C1622       C  0.17946645  0.00090540  0.43309790     0.03020
C1623       C  0.17269171  0.98416418  0.42640371    -0.11070
H1624       H  0.14422763  0.00019880  0.39286578     0.08610
H1625       H  0.17904596  0.03039002  0.42963012     0.06140
H1626       H  0.17718193  0.97131850  0.43251227     0.05990
O1627       O  0.60252193  0.13305035  0.40049730    -0.57920
C1628       C  0.66166156  0.11591796  0.38759482     0.74710
O1629       O  0.61709589  0.10319708  0.35204141    -0.59070
C1630       C  0.58959736  0.13564685  0.38897399     0.74680
C1631       C  0.63548357  0.16114497  0.36284071     0.77080
Cd1632     Cd  0.62537852  0.12551040  0.37614258     1.37460
O1633       O  0.64891708  0.11826550  0.39947186    -0.57910
O1634       O  0.63454461  0.15725281  0.37984133    -0.56720
C1635       C  0.61531249  0.08993711  0.36338958     0.77040
O1636       O  0.63121167  0.14833420  0.35174106    -0.59090
O1637       O  0.65730158  0.11831916  0.37090150    -0.57550
O1638       O  0.59354975  0.13301530  0.37222752    -0.57540
O1639       O  0.61873473  0.09311703  0.38015901    -0.56710
C1640       C  0.58902257  0.34339042  0.48426826     0.03030
C1641       C  0.59702750  0.34901462  0.50094675    -0.13120
C1642       C  0.59325996  0.33939920  0.51735351     0.00530
C1643       C  0.58148937  0.32419378  0.51702109    -0.11650
C1644       C  0.57139071  0.31999712  0.50116442     0.03020
C1645       C  0.57554744  0.32955992  0.48478110    -0.11070
H1646       H  0.60630480  0.36065532  0.50116858     0.08610
H1647       H  0.57956560  0.31624206  0.52949138     0.06140
H1648       H  0.56841369  0.32617662  0.47222007     0.05990
C1649       C  0.48497164  0.25173394  0.51232724     0.03030
C1650       C  0.49835494  0.26555002  0.51195447    -0.13120
C1651       C  0.51423388  0.26364088  0.50094540     0.00530
C1652       C  0.51634459  0.24740545  0.49067192    -0.11650
C1653       C  0.50199559  0.23461578  0.48935213     0.03020
C1654       C  0.48635600  0.23681677  0.50036981    -0.11070
H1655       H  0.49635722  0.27753561  0.52052313     0.08610
H1656       H  0.52895753  0.24481649  0.48319783     0.06140
H1657       H  0.47523858  0.22693698  0.49976052     0.05990
C1658       C  0.48385842  0.16168029  0.41005151     0.03030
C1659       C  0.50046571  0.15338024  0.40459605    -0.13120
C1660       C  0.51716643  0.15889379  0.41259967     0.00530
C1661       C  0.51707866  0.17285648  0.42583412    -0.11650
C1662       C  0.50056663  0.18079043  0.43155632     0.03020
C1663       C  0.48398902  0.17521984  0.42371373    -0.11070
H1664       H  0.50037805  0.14268309  0.39424364     0.08610
H1665       H  0.52988799  0.17753179  0.43177670     0.06140
H1666       H  0.47119669  0.18135861  0.42829469     0.05990
C1667       C  0.40984597  0.26717873  0.59092428     0.03030
C1668       C  0.42377103  0.26715148  0.57753840    -0.13120
C1669       C  0.43027515  0.25066178  0.57003397     0.00530
C1670       C  0.42263014  0.23400895  0.57608593    -0.11650
C1671       C  0.40966877  0.23363970  0.59038423     0.03020
C1672       C  0.40299617  0.25029594  0.59762128    -0.11070
H1673       H  0.42950980  0.28012468  0.57290165     0.08610
H1674       H  0.42704160  0.22118417  0.56993980     0.06140
H1675       H  0.39242195  0.25009972  0.60815708     0.05990
O1676       O  0.37216101  0.09934647  0.39845412    -0.57920
C1677       C  0.38589737  0.11166494  0.33986533     0.74710
O1678       O  0.35276235  0.14930866  0.37168786    -0.59070
C1679       C  0.36704299  0.11024265  0.41116811     0.74680
C1680       C  0.41170787  0.13820975  0.38675763     0.77080
Cd1681     Cd  0.37639563  0.12475497  0.37573718     1.37470
O1682       O  0.37995262  0.10053347  0.35205427    -0.57910
O1683       O  0.40785136  0.12129074  0.38545522    -0.56720
C1684       C  0.34019363  0.13797478  0.36724739     0.77040
O1685       O  0.39908778  0.14949659  0.38229397    -0.59090
O1686       O  0.38756586  0.12835639  0.34450451    -0.57550
O1687       O  0.36622350  0.12715757  0.40711713    -0.57540
O1688       O  0.34499592  0.12131603  0.36625478    -0.56710
O1689       O  0.39966328  0.14905794  0.62114955    -0.57920
C1690       C  0.38881538  0.08947197  0.63457012     0.74710
O1691       O  0.35012543  0.13065447  0.64873009    -0.59070
C1692       C  0.38850969  0.16103751  0.61497813     0.74680
C1693       C  0.36147822  0.11599574  0.59035534     0.77080
Cd1694     Cd  0.37517380  0.12554582  0.62595652     1.37470
O1695       O  0.39988801  0.10277991  0.63189373    -0.57910
O1696       O  0.37841518  0.11584509  0.59435767    -0.56720
C1697       C  0.36111211  0.13385038  0.66191492     0.77040
O1698       O  0.35053079  0.12063317  0.60323115    -0.59090
O1699       O  0.37188043  0.09319555  0.63315795    -0.57550
O1700       O  0.37171533  0.15661238  0.61444394    -0.57540
O1701       O  0.37807611  0.13349390  0.65802453    -0.56710
O1702       O  0.88082387  0.60191606  0.35150681    -0.57920
C1703       C  0.86691091  0.61227978  0.41127659     0.74710
O1704       O  0.89981446  0.64996683  0.38022664    -0.59070
C1705       C  0.88537295  0.61340497  0.33900267     0.74680
C1706       C  0.84031557  0.63916265  0.36596144     0.77080
Cd1707     Cd  0.87618700  0.62585980  0.37532558     1.37460
O1708       O  0.87034935  0.60103503  0.39828558    -0.57910
O1709       O  0.84461359  0.62229362  0.36591915    -0.56720
C1710       C  0.91233664  0.63848333  0.38450214     0.77040
O1711       O  0.85289319  0.65045912  0.37044860    -0.59090
O1712       O  0.86808731  0.62921136  0.40734023    -0.57550
O1713       O  0.88607825  0.63008216  0.34383263    -0.57540
O1714       O  0.90765104  0.62172636  0.38469408    -0.56710
O1715       O  0.61979271  0.39958794  0.14765845    -0.57920
C1716       C  0.63530878  0.38694026  0.08934466     0.74710
O1717       O  0.64812986  0.34966126  0.13169429    -0.59070
C1718       C  0.61547620  0.38888856  0.16087784     0.74680
C1719       C  0.58937654  0.36156832  0.11536032     0.77080
Cd1720     Cd  0.62528410  0.37439528  0.12545104     1.37470
O1721       O  0.63271002  0.39840989  0.10233278    -0.57910
O1722       O  0.59382710  0.37841845  0.11552659    -0.56720
C1723       C  0.66125793  0.36092007  0.13433010     0.77040
O1724       O  0.60177593  0.35027302  0.12033852    -0.59090
O1725       O  0.63273772  0.37019241  0.09333732    -0.57550
O1726       O  0.61602271  0.37182952  0.15743726    -0.57540
O1727       O  0.65733577  0.37782941  0.13301031    -0.56710
O1728       O  0.85099274  0.14816843  0.62979026    -0.57920
C1729       C  0.86211843  0.08898508  0.61797764     0.74710
O1730       O  0.90106145  0.13148927  0.60294903    -0.59070
C1731       C  0.86195784  0.16080213  0.63480909     0.74680
C1732       C  0.88974137  0.11664952  0.66122444     0.77080
Cd1733     Cd  0.87594587  0.12537202  0.62547132     1.37470
O1734       O  0.85107317  0.10198291  0.62192501    -0.57910
O1735       O  0.87276749  0.11769623  0.65773643    -0.56720
C1736       C  0.89022693  0.13388395  0.58945995     0.77040
O1737       O  0.90089319  0.11985753  0.64806203    -0.59090
O1738       O  0.87893305  0.09330295  0.61723547    -0.57550
O1739       O  0.87892225  0.15707959  0.63493263    -0.57540
O1740       O  0.87323599  0.13238060  0.59300917    -0.56710
C1741       C  0.73436831  0.09375182  0.41082607     0.03030
C1742       C  0.75128693  0.10059554  0.40434122    -0.13120
C1743       C  0.76787705  0.09214202  0.40964588     0.00530
C1744       C  0.76725685  0.07748778  0.42224693    -0.11650
C1745       C  0.75053409  0.07074161  0.42907645     0.03020
C1746       C  0.73411306  0.07851673  0.42269863    -0.11070
H1747       H  0.75148126  0.11240287  0.39522453     0.08610
H1748       H  0.77996933  0.07124597  0.42678802     0.06140
H1749       H  0.72104436  0.07277256  0.42699051     0.05990
C1750       C  0.84056063  0.98378435  0.59141725     0.03030
C1751       C  0.84455158  0.00018930  0.60067939    -0.13120
C1752       C  0.83650262  0.01687791  0.59505550     0.00530
C1753       C  0.82384813  0.01670954  0.58047112    -0.10050
C1754       C  0.81963830  0.00037650  0.57093364     0.03020
C1755       C  0.82900353  0.98422034  0.57601787    -0.11070
H1756       H  0.85384952  0.99994090  0.61228588     0.08610
H1757       H  0.81746690  0.02951579  0.57650900     0.06140
H1758       H  0.82731252  0.97175153  0.56813810     0.05990
C1759       C  0.76506251  0.00134473  0.51185059     0.03030
C1760       C  0.76684887  0.01179727  0.49558191    -0.13120
C1761       C  0.75274722  0.01196159  0.48251506     0.00530
C1762       C  0.73789514  0.99998778  0.48434868    -0.11650
C1763       C  0.73653642  0.98853061  0.49968876     0.03020
C1764       C  0.74950803  0.98985001  0.51377775    -0.11070
H1765       H  0.77886976  0.02019271  0.49313420     0.08610
H1766       H  0.72735231  0.99963282  0.47385115     0.06140
H1767       H  0.74749788  0.98153491  0.52600048     0.05990
C1768       C  0.66200622  0.90979959  0.48293004     0.03030
C1769       C  0.65457625  0.90367814  0.49978211    -0.13120
C1770       C  0.66151838  0.91040403  0.51653959     0.00530
C1771       C  0.67580642  0.92332168  0.51621286    -0.11650
C1772       C  0.68279576  0.93014161  0.49953843     0.03020
C1773       C  0.67556226  0.92351913  0.48294092    -0.11070
H1774       H  0.64354271  0.89368294  0.49983609     0.08610
H1775       H  0.68145118  0.92817729  0.52910094     0.06140
H1776       H  0.68038477  0.92907880  0.46994010     0.05990
C1777       C  0.72247835  0.97403702  0.50005509    -0.06230
C1778       C  0.72483560  0.95923219  0.48800960    -0.17350
C1779       C  0.71266445  0.94442703  0.48804297     0.10970
C1780       C  0.69703249  0.94479890  0.49969943    -0.06150
C1781       C  0.69475824  0.95974297  0.51180725    -0.17390
C1782       C  0.70740151  0.97421677  0.51226589     0.11000
S1783       S  0.71881589  0.92504903  0.47391972    -0.32350
S1784       S  0.70348702  0.99242074  0.52864198    -0.32360
H1785       H  0.71221943  0.00642747  0.51851105     0.29010
H1786       H  0.71234586  0.91179970  0.48651661     0.29010
H1787       H  0.73672609  0.95889458  0.47896797     0.19600
H1788       H  0.68288731  0.96030668  0.52083988     0.19610
C1789       C  0.80578596  0.00037702  0.55558550    -0.06230
C1790       C  0.80341896  0.01633055  0.54476364    -0.17350
C1791       C  0.78953846  0.01761361  0.53150850     0.10970
C1792       C  0.77946392  0.00167100  0.52654072    -0.06150
C1793       C  0.78281816  0.98539973  0.53643022    -0.17390
C1794       C  0.79435434  0.98506664  0.55168133     0.11000
S1795       S  0.78434856  0.04046244  0.52329884    -0.32350
S1796       S  0.79123425  0.96572795  0.56683412    -0.32360
H1797       H  0.79081195  0.97691437  0.58259877     0.29010
H1798       H  0.76522749  0.03766827  0.52282737     0.29010
H1799       H  0.81178804  0.02837536  0.54711618     0.19600
H1800       H  0.77553278  0.97288807  0.53307105     0.19610
C1801       C  0.75052800  0.05541899  0.44268501    -0.06230
C1802       C  0.76266420  0.04054957  0.43996145    -0.17350
C1803       C  0.76384161  0.02613295  0.45268379     0.10970
C1804       C  0.75219510  0.02618742  0.46818665    -0.06150
C1805       C  0.73983177  0.04067214  0.47079122    -0.17390
C1806       C  0.73924060  0.05549549  0.45862671     0.11000
S1807       S  0.78058082  0.00832432  0.44849407    -0.32350
S1808       S  0.72502700  0.07459944  0.46539028    -0.32360
H1809       H  0.73780272  0.08802114  0.45976953     0.29010
H1810       H  0.77134609  0.99422049  0.45801953     0.29010
H1811       H  0.77136383  0.04013339  0.42783209     0.19600
H1812       H  0.73116283  0.04084381  0.48297481     0.19610
C1813       C  0.84244287  0.03469626  0.60330841    -0.06230
C1814       C  0.86134291  0.03803274  0.60500605    -0.17350
C1815       C  0.86808455  0.05506464  0.61079191     0.10970
C1816       C  0.85575381  0.06985512  0.61406702    -0.06150
C1817       C  0.83678805  0.06630602  0.61303777    -0.17390
C1818       C  0.83003376  0.04889395  0.60823034     0.11000
S1819       S  0.89259278  0.05661314  0.61385637    -0.32350
S1820       S  0.80548519  0.04562132  0.60936386    -0.32360
H1821       H  0.80628208  0.02676875  0.61367152     0.29010
H1822       H  0.89109422  0.06421852  0.63160657     0.29010
H1823       H  0.87107635  0.02728655  0.60156671     0.19600
H1824       H  0.82705385  0.07715786  0.61609331     0.19610
C1825       C  0.40356844  0.21554412  0.59752485    -0.06230
C1826       C  0.39387235  0.20390548  0.58565790    -0.17350
C1827       C  0.38938041  0.18591388  0.59083478     0.10970
C1828       C  0.39447852  0.17931062  0.60840705    -0.06150
C1829       C  0.40419093  0.19090294  0.62031262    -0.17390
C1830       C  0.40888108  0.20888669  0.61503015     0.11000
S1831       S  0.37768384  0.17185231  0.57413198    -0.32350
S1832       S  0.42185591  0.22250371  0.63110828    -0.32360
H1833       H  0.43237905  0.23195229  0.61785250     0.29010
H1834       H  0.38593721  0.15517129  0.57940295     0.29010
H1835       H  0.39012868  0.20877031  0.57205866     0.19600
H1836       H  0.40802284  0.18596538  0.63385663     0.19610
C1837       C  0.46608149  0.15550720  0.40255532    -0.06230
C1838       C  0.45922329  0.13856548  0.40857288    -0.17350
C1839       C  0.44137497  0.13301905  0.40430264     0.10970
C1840       C  0.43016845  0.14425352  0.39296627    -0.06150
C1841       C  0.43712206  0.16126322  0.38690389    -0.17390
C1842       C  0.45490111  0.16700083  0.39158662     0.11000
S1843       S  0.43330526  0.11225283  0.41519415    -0.32350
S1844       S  0.46252883  0.18909385  0.38317121    -0.32360
H1845       H  0.48139613  0.18496984  0.38297008     0.29010
H1846       H  0.41635127  0.12005315  0.42033191     0.29010
H1847       H  0.46752291  0.13001698  0.41753152     0.19600
H1848       H  0.42877211  0.17004813  0.37824374     0.19610
C1849       C  0.50264252  0.22011224  0.47512625    -0.06230
C1850       C  0.50689627  0.22546463  0.45698687    -0.17350
C1851       C  0.50605737  0.21299538  0.44247469     0.10970
C1852       C  0.50072048  0.19472779  0.44607348    -0.06150
C1853       C  0.49663178  0.18921065  0.46412027    -0.17390
C1854       C  0.49784208  0.20159054  0.47874151     0.11000
S1855       S  0.51196878  0.22123966  0.41974492    -0.32350
S1856       S  0.49398631  0.19262113  0.50162027    -0.32360
H1857       H  0.50593409  0.20491050  0.51048923     0.29010
H1858       H  0.50056051  0.20917094  0.40995029     0.29010
H1859       H  0.51041962  0.23963351  0.45398020     0.19600
H1860       H  0.49300116  0.17500517  0.46688248     0.19610
C1861       C  0.47054645  0.25175497  0.52653189    -0.06230
C1862       C  0.47223864  0.23901945  0.54092226    -0.17350
C1863       C  0.45986979  0.23883268  0.55563296     0.10970
C1864       C  0.44467969  0.25100177  0.55550588    -0.06150
C1865       C  0.44305263  0.26376869  0.54097909    -0.17390
C1866       C  0.45592369  0.26442546  0.52664681     0.11000
S1867       S  0.46517075  0.22365046  0.57458436    -0.32350
S1868       S  0.45289620  0.28165782  0.50900387    -0.32360
H1869       H  0.46155804  0.27189156  0.49473835     0.29010
H1870       H  0.45860781  0.23555246  0.58835384     0.29010
H1871       H  0.48379752  0.22960905  0.54105176     0.19600
H1872       H  0.43152008  0.27318139  0.54063280     0.19610
C1873       C  0.55660331  0.30568779  0.50152003    -0.06230
C1874       C  0.55376282  0.29489489  0.48574368    -0.17350
C1875       C  0.53915615  0.28252395  0.48459527     0.10970
C1876       C  0.52870391  0.27826024  0.50058511    -0.06150
C1877       C  0.53206951  0.28847714  0.51664340    -0.17390
C1878       C  0.54471110  0.30293555  0.51682950     0.11000
S1879       S  0.53359387  0.27459411  0.46175743    -0.32350
S1880       S  0.54324889  0.31828054  0.53627361    -0.32360
H1881       H  0.54632436  0.33431962  0.52582700     0.29010
H1882       H  0.51447021  0.27483400  0.46466915     0.29010
H1883       H  0.56241627  0.29662534  0.47371537     0.19600
H1884       H  0.52428284  0.28580737  0.52908770     0.19610
C1885       C  0.57076277  0.14126929  0.39465987    -0.06230
C1886       C  0.56554405  0.13916470  0.41318790    -0.17350
C1887       C  0.54785478  0.14379127  0.41925221     0.10970
C1888       C  0.53495278  0.15097340  0.40661350    -0.06150
C1889       C  0.53994231  0.15269907  0.38806824    -0.17390
C1890       C  0.55763620  0.14825131  0.38199338     0.11000
S1891       S  0.54253983  0.13990375  0.44323861    -0.32350
S1892       S  0.56264197  0.15306130  0.35813396    -0.32360
H1893       H  0.57886172  0.16281992  0.36204597     0.29010
H1894       H  0.52366371  0.13674320  0.44066782     0.29010
H1895       H  0.57523665  0.13364844  0.42304540     0.19600
H1896       H  0.53024942  0.15852549  0.37837463     0.19610
C1897       C  0.68073076  0.11086326  0.39295694    -0.06230
C1898       C  0.68605282  0.11341444  0.41133933    -0.17350
C1899       C  0.70382616  0.10915495  0.41725861     0.10970
C1900       C  0.71669840  0.10174767  0.40469595    -0.06150
C1901       C  0.71170683  0.09974683  0.38622502    -0.17390
C1902       C  0.69393945  0.10399896  0.38023864     0.11000
S1903       S  0.70929022  0.11388173  0.44094878    -0.32350
S1904       S  0.68895505  0.09919144  0.35645444    -0.32360
H1905       H  0.67296250  0.08907103  0.36057594     0.29010
H1906       H  0.72824726  0.11639472  0.43813277     0.29010
H1907       H  0.67636054  0.11899994  0.42121056     0.19600
H1908       H  0.72146457  0.09389861  0.37656039     0.19610
C1909       C  0.34586462  0.10010091  0.53514455    -0.06230
C1910       C  0.33234234  0.10591972  0.54773771    -0.17350
C1911       C  0.33675011  0.11075646  0.56584085     0.10970
C1912       C  0.35535516  0.11091769  0.57147109    -0.06150
C1913       C  0.36892702  0.10590199  0.55854444    -0.17390
C1914       C  0.36442314  0.10004996  0.54080777     0.11000
S1915       S  0.31783745  0.11578763  0.58104773    -0.32350
S1916       S  0.38297806  0.09141876  0.52674002    -0.32360
H1917       H  0.37308459  0.07627679  0.51997116     0.29010
H1918       H  0.32280412  0.10202632  0.59375960     0.29010
H1919       H  0.31804390  0.10602680  0.54364646     0.19600
H1920       H  0.38326908  0.10577011  0.56246583     0.19610
C1921       C  0.35055288  0.09499383  0.46604572    -0.06230
C1922       C  0.36532062  0.08577067  0.45773216    -0.17350
C1923       C  0.37107819  0.09019741  0.43979817     0.10970
C1924       C  0.36171850  0.10407255  0.42986076    -0.06150
C1925       C  0.34683565  0.11309734  0.43823565    -0.17390
C1926       C  0.34109044  0.10867281  0.45605496     0.11000
S1927       S  0.39051023  0.07781838  0.43068767    -0.32350
S1928       S  0.32079007  0.12011953  0.46463993    -0.32360
H1929       H  0.32574846  0.12024899  0.48326620     0.29010
H1930       H  0.39776484  0.09266291  0.42069384     0.29010
H1931       H  0.37231903  0.07495984  0.46523948     0.19600
H1932       H  0.33938039  0.12357791  0.43069126     0.19610
C1933       C  0.27821457  0.02858051  0.50147018    -0.06230
C1934       C  0.28165157  0.03888776  0.48538896    -0.17350
C1935       C  0.29411542  0.05347823  0.48520536     0.10970
C1936       C  0.30589594  0.05618855  0.50047624    -0.06150
C1937       C  0.30283123  0.04548618  0.51637158    -0.17390
C1938       C  0.28827826  0.03304295  0.51753103     0.11000
S1939       S  0.29258219  0.06900716  0.46582846    -0.32350
S1940       S  0.28228229  0.02522363  0.54039369    -0.32360
H1941       H  0.26324751  0.02519618  0.53714630     0.29010
H1942       H  0.29596123  0.08491892  0.47625517     0.29010
H1943       H  0.27411794  0.03614554  0.47288988     0.19600
H1944       H  0.31131659  0.04723166  0.52842996     0.19610
C1945       C  0.19345164  0.00097267  0.44787525    -0.06230
C1946       C  0.20836503  0.98881462  0.44626222    -0.17350
C1947       C  0.22236219  0.98850285  0.45928281     0.10970
C1948       C  0.22167891  0.00077254  0.47426131    -0.06150
C1949       C  0.20694501  0.01301730  0.47596023    -0.17390
C1950       C  0.19260736  0.01297569  0.46320480     0.11000
S1951       S  0.24076119  0.97219185  0.45591415    -0.32350
S1952       S  0.17325753  0.02771706  0.46802291    -0.32360
H1953       H  0.15999527  0.01567145  0.46083433     0.29010
H1954       H  0.25471725  0.98313675  0.46349605     0.29010
H1955       H  0.20932658  0.97966038  0.43454936     0.19600
H1956       H  0.20630968  0.02221067  0.48766818     0.19610
C1957       C  0.25268045  0.94218164  0.55350780    -0.06230
C1958       C  0.24114116  0.95753348  0.55536604    -0.17350
C1959       C  0.24089465  0.97142025  0.54211920     0.10970
C1960       C  0.25256392  0.97009933  0.52662575    -0.06150
C1961       C  0.26418243  0.95490228  0.52467618    -0.17390
C1962       C  0.26410455  0.94073306  0.53773164     0.11000
S1963       S  0.22531631  0.99039514  0.54582897    -0.32350
S1964       S  0.27805820  0.92083442  0.53283645    -0.32360
H1965       H  0.26578434  0.90807103  0.54069257     0.29010
H1966       H  0.23589146  0.00387805  0.53685180     0.29010
H1967       H  0.23241881  0.95888492  0.56741947     0.19600
H1968       H  0.27292318  0.95381323  0.51260779     0.19610
C1969       C  0.15402785  0.96577766  0.40475754    -0.06230
C1970       C  0.16072041  0.95966995  0.38770365    -0.17350
C1971       C  0.15686863  0.94191520  0.38130968     0.10970
C1972       C  0.14606801  0.92990879  0.39223653    -0.06150
C1973       C  0.13927315  0.93613907  0.40922994    -0.17390
C1974       C  0.14318099  0.95382425  0.41563076     0.11000
S1975       S  0.16587553  0.93573278  0.35902666    -0.32350
S1976       S  0.13408745  0.96023055  0.43786108    -0.32360
H1977       H  0.13264817  0.97915577  0.43414363     0.29010
H1978       H  0.15191216  0.92328503  0.35465949     0.29010
H1979       H  0.16924865  0.96873045  0.37943038     0.19600
H1980       H  0.13087330  0.92708896  0.41765383     0.19610
C1981       C  0.61193092  0.35583337  0.57105682    -0.06230
C1982       C  0.60050012  0.36745809  0.56066207    -0.17350
C1983       C  0.59448188  0.36255046  0.54310039     0.10970
C1984       C  0.60032312  0.34577970  0.53530788    -0.06150
C1985       C  0.61199695  0.33424845  0.54545896    -0.17390
C1986       C  0.61806524  0.33918423  0.56307019     0.11000
S1987       S  0.57863140  0.37789918  0.53177523    -0.32350
S1988       S  0.63414715  0.32402100  0.57419711    -0.32360
H1989       H  0.64547490  0.33832243  0.58056613     0.29010
H1990       H  0.56792344  0.36406316  0.52363886     0.29010
H1991       H  0.59562861  0.38026402  0.56651349     0.19600
H1992       H  0.61652855  0.32135224  0.53953030     0.19610
C1993       C  0.47487663  0.53008764  0.75057575    -0.06230
C1994       C  0.47122963  0.53975252  0.76698242    -0.17350
C1995       C  0.45900949  0.55456607  0.76747541     0.10970
C1996       C  0.44797683  0.55840774  0.75192571    -0.06150
C1997       C  0.45148267  0.54859678  0.73558686    -0.17390
C1998       C  0.46555434  0.53562576  0.73439779     0.11000
S1999       S  0.45962219  0.56877780  0.78779127    -0.32350
S2000       S  0.47173945  0.52817956  0.71150226    -0.32360
H2001       H  0.49065480  0.52682179  0.71518227     0.29010
H2002       H  0.45551395  0.58524574  0.77846414     0.29010
H2003       H  0.47828287  0.53616664  0.77957398     0.19600
H2004       H  0.44351648  0.55128967  0.72331961     0.19610
C2005       C  0.53583272  0.40393148  0.65482743    -0.06230
C2006       C  0.54869515  0.41764985  0.65022646    -0.17350
C2007       C  0.56655814  0.41329887  0.64448381     0.10970
C2008       C  0.57174199  0.39465199  0.64236167    -0.06150
C2009       C  0.55863399  0.38095156  0.64652234    -0.17390
C2010       C  0.54104994  0.38531544  0.65307232     0.11000
S2011       S  0.58204375  0.43226938  0.64081902    -0.32350
S2012       S  0.52647354  0.36642956  0.65996399    -0.32360
H2013       H  0.51865867  0.37547653  0.67518713     0.29010
H2014       H  0.59516612  0.42540214  0.65325009     0.29010
H2015       H  0.54491613  0.43200426  0.65157153     0.19600
H2016       H  0.56224190  0.36655672  0.64523397     0.19610
C2017       C  0.49982354  0.44469891  0.69677710    -0.06230
C2018       C  0.48747928  0.44282780  0.71164885    -0.17350
C2019       C  0.48688616  0.45576620  0.72585012     0.10970
C2020       C  0.49909824  0.47077971  0.72538352    -0.06150
C2021       C  0.51129482  0.47279966  0.71055820    -0.17390
C2022       C  0.51149894  0.46026653  0.69606335     0.11000
S2023       S  0.47034642  0.45230733  0.74409915    -0.32350
S2024       S  0.52617368  0.46569425  0.67670252    -0.32360
H2025       H  0.51427406  0.45851791  0.66331254     0.29010
H2026       H  0.48028271  0.46128804  0.75796965     0.29010
H2027       H  0.47842464  0.43101887  0.71239868     0.19600
H2028       H  0.52036327  0.48462253  0.71001430     0.19610
C2029       C  0.55805549  0.50124351  0.80473091    -0.06230
C2030       C  0.54311586  0.48908087  0.80625225    -0.17350
C2031       C  0.52939782  0.48858983  0.79293567     0.10970
C2032       C  0.53041467  0.50067639  0.77775687    -0.06150
C2033       C  0.54524412  0.51281914  0.77608427    -0.17390
C2034       C  0.55929795  0.51294757  0.78913318     0.11000
S2035       S  0.51086647  0.47238950  0.79625595    -0.32350
S2036       S  0.57877178  0.52758867  0.78441382    -0.32360
H2037       H  0.59183932  0.51572198  0.79228487     0.29010
H2038       H  0.49707108  0.48327393  0.78824844     0.29010
H2039       H  0.54187381  0.48012354  0.81814663     0.19600
H2040       H  0.54611788  0.52188671  0.76423793     0.19610
C2041       C  0.60895184  0.57190976  0.85803720    -0.06230
C2042       C  0.59090911  0.56642954  0.86210135    -0.17350
C2043       C  0.58464888  0.54879978  0.85771298     0.10970
C2044       C  0.59668909  0.53624235  0.84905212    -0.06150
C2045       C  0.61486007  0.54159136  0.84532259    -0.17390
C2046       C  0.62114875  0.55922864  0.84982876     0.11000
S2047       S  0.56114734  0.54321453  0.86343597    -0.32350
S2048       S  0.64489259  0.56458263  0.84508795    -0.32360
H2049       H  0.64739329  0.57623760  0.86028604     0.29010
H2050       H  0.56401497  0.52425312  0.86593659     0.29010
H2051       H  0.58157699  0.57602071  0.86868368     0.19600
H2052       H  0.62412957  0.53203963  0.83860718     0.19610
C2053       C  0.60725596  0.43087116  0.85943067    -0.06230
C2054       C  0.58903777  0.43664537  0.86221634    -0.17350
C2055       C  0.58339183  0.45447041  0.85757005     0.10970
C2056       C  0.59617189  0.46699882  0.84988918    -0.06150
C2057       C  0.61439471  0.46145139  0.84735643    -0.17390
C2058       C  0.61999977  0.44354070  0.85163661     0.11000
S2059       S  0.55966091  0.46038587  0.86174310    -0.32350
S2060       S  0.64324170  0.43757544  0.84542921    -0.32360
H2061       H  0.63815065  0.42117222  0.83655045     0.29010
H2062       H  0.56266308  0.47928592  0.86444863     0.29010
H2063       H  0.57909219  0.42726327  0.86820088     0.19600
H2064       H  0.62410857  0.47085342  0.84100630     0.19610
C2065       C  0.38622883  0.60448059  0.81990380    -0.06230
C2066       C  0.38675357  0.58550589  0.81617547    -0.17350
C2067       C  0.39147217  0.57882180  0.79865183     0.10970
C2068       C  0.39654650  0.59129789  0.78450439    -0.06150
C2069       C  0.39516369  0.61020000  0.78797644    -0.17390
C2070       C  0.38972097  0.61690228  0.80515877     0.11000
S2071       S  0.39029730  0.55430007  0.79519888    -0.32350
S2072       S  0.38760454  0.64152347  0.80698959    -0.32360
H2073       H  0.36997915  0.64066766  0.81500331     0.29010
H2074       H  0.38708426  0.55525486  0.77613904     0.29010
H2075       H  0.38355636  0.57572924  0.82700805     0.19600
H2076       H  0.39884506  0.61997359  0.77728056     0.19610
C2077       C  0.15772227  0.78415228  0.35241125    -0.06230
C2078       C  0.13895722  0.78826704  0.35397007    -0.17350
C2079       C  0.13284083  0.80558280  0.35968730     0.10970
C2080       C  0.14572855  0.81984109  0.36313869    -0.06150
C2081       C  0.16453783  0.81545759  0.36239106    -0.17390
C2082       C  0.17062807  0.79778536  0.35756310     0.11000
S2083       S  0.10835635  0.80819457  0.36237751    -0.32350
S2084       S  0.19499096  0.79346250  0.35888050    -0.32360
H2085       H  0.19333557  0.77454201  0.36260238     0.29010
H2086       H  0.10976554  0.81589943  0.38007672     0.29010
H2087       H  0.12885107  0.77795515  0.35035763     0.19600
H2088       H  0.17466445  0.82586773  0.36561418     0.19610
C2089       C  0.28121712  0.72561389  0.25116005    -0.06230
C2090       C  0.29079801  0.72139342  0.23479292    -0.17350
C2091       C  0.30549268  0.70905487  0.23455908     0.10970
C2092       C  0.30900679  0.69799612  0.25025940    -0.06150
C2093       C  0.29931636  0.70209054  0.26659099    -0.17390
C2094       C  0.28686027  0.71667254  0.26756710     0.11000
S2095       S  0.32005737  0.70978712  0.21438909    -0.32350
S2096       S  0.28056785  0.72412108  0.29043002    -0.32360
H2097       H  0.27879675  0.74278529  0.28559462     0.29010
H2098       H  0.33637105  0.70627176  0.22410251     0.29010
H2099       H  0.28728467  0.72805793  0.22194942     0.19600
H2100       H  0.30172125  0.69431095  0.27906016     0.19610
C2101       C  0.22006855  0.74947675  0.27503065    -0.06230
C2102       C  0.21562153  0.73332917  0.28474262    -0.17350
C2103       C  0.20381218  0.73360271  0.29992433     0.10970
C2104       C  0.19327328  0.74959799  0.30376507    -0.06150
C2105       C  0.19701304  0.76553820  0.29343142    -0.17390
C2106       C  0.21121266  0.76605668  0.28043949     0.11000
S2107       S  0.20506476  0.71383518  0.31492870    -0.32350
S2108       S  0.21852590  0.78872895  0.27335213    -0.32360
H2109       H  0.23738302  0.78448294  0.27376766     0.29010
H2110       H  0.20357471  0.72416065  0.33122532     0.29010
H2111       H  0.22211668  0.72040799  0.28129291     0.19600
H2112       H  0.18951924  0.77811683  0.29603996     0.19610
C2113       C  0.24899508  0.77725647  0.21936596    -0.06230
C2114       C  0.24608704  0.79553362  0.22472864    -0.17350
C2115       C  0.24688050  0.80982656  0.21192275     0.10970
C2116       C  0.25054498  0.80573308  0.19330608    -0.06150
C2117       C  0.25335911  0.78748971  0.18786887    -0.17390
C2118       C  0.25243272  0.77316013  0.20067303     0.11000
S2119       S  0.24293164  0.83286881  0.22021564    -0.32350
S2120       S  0.25515360  0.75000735  0.19222891    -0.32360
H2121       H  0.24357189  0.74166941  0.20535829     0.29010
H2122       H  0.25355886  0.84203917  0.20689576     0.29010
H2123       H  0.24355366  0.79872494  0.23908251     0.19600
H2124       H  0.25589044  0.78438639  0.17348977     0.19610
C2125       C  0.25014285  0.47163350  0.02728973    -0.06230
C2126       C  0.25420291  0.47652223  0.04555823    -0.17350
C2127       C  0.25420188  0.46345917  0.05969504     0.10970
C2128       C  0.24964434  0.44508085  0.05565973    -0.06150
C2129       C  0.24558670  0.44007319  0.03753979    -0.17390
C2130       C  0.24628357  0.45296328  0.02324900     0.11000
S2131       S  0.26022328  0.47111520  0.08250951    -0.32350
S2132       S  0.24338954  0.44429153  0.00019068    -0.32360
H2133       H  0.25595166  0.45655050  0.99197690     0.29010
H2134       H  0.24970457  0.45811038  0.09226739     0.29010
H2135       H  0.25715742  0.49071479  0.04894850     0.19600
H2136       H  0.24253407  0.42582798  0.03441560     0.19610
C2137       C  0.19502347  0.50054849  0.94394586    -0.06230
C2138       C  0.19316567  0.51280234  0.95880766    -0.17350
C2139       C  0.20613202  0.51341117  0.97291441     0.10970
C2140       C  0.22113590  0.50119928  0.97248348    -0.06150
C2141       C  0.22320498  0.48908320  0.95768340    -0.17390
C2142       C  0.21066103  0.48895959  0.94318065     0.11000
S2143       S  0.20280702  0.53015661  0.99091449    -0.32350
S2144       S  0.21619310  0.47459607  0.92371985    -0.32360
H2145       H  0.20849049  0.48641344  0.91047362     0.29010
H2146       H  0.21173677  0.52034125  0.00495216     0.29010
H2147       H  0.18132156  0.52179042  0.95965248     0.19600
H2148       H  0.23506622  0.48007605  0.95714319     0.19610
C2149       C  0.35052228  0.59406244  0.96646051    -0.06230
C2150       C  0.35323619  0.61281980  0.96296856    -0.17350
C2151       C  0.35940907  0.61908609  0.94578294     0.10970
C2152       C  0.36227696  0.60638854  0.93119530    -0.06150
C2153       C  0.36020402  0.58754443  0.93497350    -0.17390
C2154       C  0.35478024  0.58125590  0.95241294     0.11000
S2155       S  0.36350088  0.64344585  0.94374424    -0.32350
S2156       S  0.35394768  0.55668265  0.95586846    -0.32360
H2157       H  0.35837240  0.55718945  0.97469216     0.29010
H2158       H  0.38097712  0.64118634  0.93568253     0.29010
H2159       H  0.35028228  0.62275457  0.97367995     0.19600
H2160       H  0.36278014  0.57753881  0.92424385     0.19610
C2161       C  0.30361462  0.55679624  0.00004860    -0.06230
C2162       C  0.30560888  0.54183939  0.98793984    -0.17350
C2163       C  0.29266910  0.52768544  0.98737669     0.10970
C2164       C  0.27751023  0.52817628  0.99946882    -0.06150
C2165       C  0.27532650  0.54302750  0.01149288    -0.17390
C2166       C  0.28789965  0.55755054  0.01161561     0.11000
S2167       S  0.29620074  0.50959520  0.97076639    -0.32350
S2168       S  0.28232538  0.57698415  0.02597408    -0.32360
H2169       H  0.29014523  0.59022238  0.01415767     0.29010
H2170       H  0.28709957  0.49559596  0.98055374     0.29010
H2171       H  0.31754137  0.54096103  0.97901697     0.19600
H2172       H  0.26337749  0.54357649  0.02043895     0.19610
C2173       C  0.35461896  0.63941349  0.18023137    -0.06230
C2174       C  0.36356092  0.65423584  0.18867576    -0.17350
C2175       C  0.35891002  0.65990526  0.20644835     0.10970
C2176       C  0.34502075  0.65049687  0.21631667    -0.06150
C2177       C  0.33599387  0.63566434  0.20797763    -0.17390
C2178       C  0.34072988  0.62992849  0.19011282     0.11000
S2179       S  0.37052062  0.67995246  0.21527169    -0.32350
S2180       S  0.32888375  0.61023580  0.18098374    -0.32360
H2181       H  0.34406245  0.60332608  0.17125204     0.29010
H2182       H  0.37038639  0.67461727  0.23384956     0.29010
H2183       H  0.37414415  0.66169764  0.18122185     0.19600
H2184       H  0.32513305  0.62859252  0.21539311     0.19610
C2185       C  0.35632004  0.60892669  0.07158440    -0.06230
C2186       C  0.35383599  0.62154255  0.05719833    -0.17350
C2187       C  0.34860862  0.61568627  0.03959518     0.10970
C2188       C  0.34650048  0.59664056  0.03601935    -0.06150
C2189       C  0.34933170  0.58407853  0.05050727    -0.17390
C2190       C  0.35414597  0.58998504  0.06814883     0.11000
S2191       S  0.34384178  0.63330724  0.02276526    -0.32350
S2192       S  0.35703183  0.57267295  0.08575949    -0.32360
H2193       H  0.37130477  0.58156158  0.09516961     0.29010
H2194       H  0.32872563  0.62420991  0.01494341     0.29010
H2195       H  0.35555146  0.63610737  0.05982142     0.19600
H2196       H  0.34783011  0.56946310  0.04806084     0.19610
C2197       C  0.31995639  0.39100165  0.10611648    -0.06230
C2198       C  0.31213775  0.40654352  0.11451604    -0.17350
C2199       C  0.29452330  0.41264500  0.10991261     0.10970
C2200       C  0.28429870  0.40298361  0.09662726    -0.06150
C2201       C  0.29198768  0.38739811  0.08824691    -0.17390
C2202       C  0.30961934  0.38121882  0.09294390     0.11000
S2203       S  0.28617520  0.43321543  0.12100161    -0.32350
S2204       S  0.31785652  0.36052756  0.08211229    -0.32360
H2205       H  0.32657947  0.35357733  0.09791702     0.29010
H2206       H  0.26738577  0.42894397  0.12004759     0.29010
H2207       H  0.31992340  0.41415515  0.12465061     0.19600
H2208       H  0.28421348  0.38004921  0.07791564     0.19610
C2209       C  0.61008741  0.39547582  0.17954446    -0.06230
C2210       C  0.60918592  0.38251773  0.19399591    -0.17350
C2211       C  0.60326380  0.38736359  0.21170439     0.10970
C2212       C  0.59898704  0.40590889  0.21560619    -0.06150
C2213       C  0.60062939  0.41899070  0.20136522    -0.17390
C2214       C  0.60545798  0.41395854  0.18341652     0.11000
S2215       S  0.60032827  0.36894964  0.22814679    -0.32350
S2216       S  0.60415028  0.43163778  0.16606006    -0.32360
H2217       H  0.59310892  0.42103711  0.15427774     0.29010
H2218       H  0.58408875  0.37600301  0.23595166     0.29010
H2219       H  0.61251476  0.36823846  0.19137552     0.19600
H2220       H  0.59737574  0.43327783  0.20407315     0.19610
C2221       C  0.50022537  0.52945230  0.27731568    -0.06230
C2222       C  0.50424680  0.52487143  0.29562402    -0.17350
C2223       C  0.50446059  0.53823966  0.30934045     0.10970
C2224       C  0.50063494  0.55670853  0.30471847    -0.06150
C2225       C  0.49647236  0.56138179  0.28651652    -0.17390
C2226       C  0.49653554  0.54804334  0.27269610     0.11000
S2227       S  0.50973287  0.53076412  0.33243599    -0.32350
S2228       S  0.49280124  0.55588466  0.24941581    -0.32360
H2229       H  0.50524441  0.54353168  0.24124459     0.29010
H2230       H  0.49910750  0.54398498  0.34167372     0.29010
H2231       H  0.50701625  0.51069321  0.29932916     0.19600
H2232       H  0.49368557  0.57560173  0.28298385     0.19610
C2233       C  0.52980157  0.47509243  0.24827390    -0.06230
C2234       C  0.52734484  0.46073321  0.26096308    -0.17350
C2235       C  0.53922560  0.44565985  0.26130921     0.10970
C2236       C  0.55454672  0.44532309  0.24925375    -0.06150
C2237       C  0.55682655  0.45975577  0.23646338    -0.17390
C2238       C  0.54454052  0.47447600  0.23570772     0.11000
S2239       S  0.53327806  0.42696202  0.27659520    -0.32350
S2240       S  0.54843833  0.49195456  0.21845126    -0.32360
H2241       H  0.54023870  0.50651885  0.22814077     0.29010
H2242       H  0.54050815  0.41302838  0.26530204     0.29010
H2243       H  0.51563283  0.46096898  0.27023685     0.19600
H2244       H  0.56851340  0.45978494  0.22717087     0.19610
C2245       C  0.40631068  0.53489475  0.14860495    -0.06230
C2246       C  0.38789835  0.53986149  0.15116089    -0.17350
C2247       C  0.38168648  0.55755434  0.14709947     0.10970
C2248       C  0.39407002  0.57085649  0.13987503    -0.06150
C2249       C  0.41244036  0.56570372  0.13684634    -0.17390
C2250       C  0.41862411  0.54789878  0.14090723     0.11000
S2251       S  0.35807381  0.56236161  0.15281702    -0.32350
S2252       S  0.44221287  0.54253615  0.13543505    -0.32360
H2253       H  0.43927782  0.52365974  0.13247798     0.29010
H2254       H  0.36272452  0.57790179  0.16327824     0.29010
H2255       H  0.37840981  0.53012881  0.15735137     0.19600
H2256       H  0.42203753  0.57551865  0.13098915     0.19610
C2257       C  0.39961861  0.46610295  0.15498143    -0.06230
C2258       C  0.39481875  0.45318114  0.16865814    -0.17350
C2259       C  0.39014904  0.43506428  0.16424236     0.10970
C2260       C  0.38863463  0.42985700  0.14555890    -0.06150
C2261       C  0.39240971  0.44310281  0.13188663    -0.17390
C2262       C  0.39844569  0.46077525  0.13629621     0.11000
S2263       S  0.38760849  0.41919590  0.18315664    -0.32350
S2264       S  0.40584541  0.47506003  0.11731380    -0.32360
H2265       H  0.42180657  0.48138445  0.12612979     0.29010
H2266       H  0.40039992  0.40661898  0.17586713     0.29010
H2267       H  0.39555183  0.45695925  0.18305463     0.19600
H2268       H  0.39149824  0.43946297  0.11746379     0.19610
C2269       C  0.44381049  0.50047229  0.19478188    -0.06230
C2270       C  0.45441937  0.48459283  0.19792759    -0.17350
C2271       C  0.46669759  0.48346009  0.21259273     0.10970
C2272       C  0.47116245  0.49955769  0.22261342    -0.06150
C2273       C  0.46084966  0.51557604  0.21914151    -0.17390
C2274       C  0.44634409  0.51568246  0.20665823     0.11000
S2275       S  0.47428755  0.46061838  0.21873185    -0.32350
S2276       S  0.43071685  0.53490325  0.20822075    -0.32360
H2277       H  0.41490529  0.52447770  0.20439641     0.29010
H2278       H  0.47485089  0.46408833  0.23777113     0.29010
H2279       H  0.45274128  0.47253925  0.18940485     0.19600
H2280       H  0.46355245  0.52814194  0.22658146     0.19610
C2281       C  0.36223705  0.64631892  0.32097290    -0.06230
C2282       C  0.34342588  0.64868818  0.31796519    -0.17350
C2283       C  0.33665338  0.65255262  0.30041653     0.10970
C2284       C  0.34902094  0.65490840  0.28546651    -0.06150
C2285       C  0.36788963  0.65222206  0.28843504    -0.17390
C2286       C  0.37460690  0.64784826  0.30600808     0.11000
S2287       S  0.31199322  0.65337440  0.29791812    -0.32350
S2288       S  0.39899402  0.64420087  0.30839551    -0.32360
H2289       H  0.40012691  0.64878210  0.32713714     0.29010
H2290       H  0.31173021  0.64642798  0.27986643     0.29010
H2291       H  0.33384044  0.64678700  0.32928345     0.19600
H2292       H  0.37747209  0.65389629  0.27709415     0.19610
C2293       C  0.43086001  0.60481128  0.36102471    -0.06230
C2294       C  0.44539164  0.61761014  0.36107320    -0.17350
C2295       C  0.46330661  0.61275674  0.35565259     0.10970
C2296       C  0.46716901  0.59434124  0.35072228    -0.06150
C2297       C  0.45280243  0.58136987  0.35162248    -0.17390
C2298       C  0.43475696  0.58646601  0.35593311     0.11000
S2299       S  0.48044488  0.63066080  0.35359681    -0.32350
S2300       S  0.41728877  0.56917615  0.35305015    -0.32360
H2301       H  0.40604794  0.58056125  0.34215789     0.29010
H2302       H  0.47023013  0.64477197  0.36199480     0.29010
H2303       H  0.44257275  0.63173071  0.36479926     0.19600
H2304       H  0.45544897  0.56717197  0.34797601     0.19610
C2305       C  0.57223787  0.60977143  0.35622827    -0.06230
C2306       C  0.57043700  0.59143067  0.35079403    -0.17350
C2307       C  0.55318403  0.58372279  0.34736067     0.10970
C2308       C  0.53721752  0.59496645  0.34783548    -0.06150
C2309       C  0.53911362  0.61335293  0.35354996    -0.17390
C2310       C  0.55632362  0.62071964  0.35808938     0.11000
S2311       S  0.55253703  0.55913119  0.34424278    -0.32350
S2312       S  0.55705515  0.64418529  0.36604620    -0.32360
H2313       H  0.57493170  0.64807343  0.35975780     0.29010
H2314       H  0.53536362  0.55689699  0.35290761     0.29010
H2315       H  0.58250776  0.58270222  0.35033143     0.19600
H2316       H  0.52717355  0.62222323  0.35413675     0.19610
C2317       C  0.64711979  0.53390874  0.40758588    -0.06230
C2318       C  0.65113003  0.53932669  0.38949256    -0.17350
C2319       C  0.64785794  0.55726903  0.38342444     0.10970
C2320       C  0.63952475  0.57020087  0.39544471    -0.06150
C2321       C  0.63500941  0.56459021  0.41343974    -0.17390
C2322       C  0.63866868  0.54666483  0.41960604     0.11000
S2323       S  0.65623624  0.56298127  0.36071871    -0.32350
S2324       S  0.63214278  0.54090299  0.44290152    -0.32360
H2325       H  0.63032286  0.52189937  0.43988626     0.29010
H2326       H  0.66486590  0.57928705  0.36648846     0.29010
H2327       H  0.65813225  0.52983809  0.38035423     0.19600
H2328       H  0.62845073  0.57418543  0.42277099     0.19610
C2329       C  0.71539537  0.40527592  0.59766074    -0.06230
C2330       C  0.70305912  0.39754935  0.58505206    -0.17350
C2331       C  0.68518001  0.39276041  0.59029171     0.10970
C2332       C  0.67938942  0.39554502  0.60864687    -0.06150
C2333       C  0.69166380  0.40323236  0.62132135    -0.17390
C2334       C  0.70955184  0.40822522  0.61600925     0.11000
S2335       S  0.67026459  0.38353527  0.57280036    -0.32350
S2336       S  0.72407227  0.41854432  0.63315891    -0.32360
H2337       H  0.73326733  0.43055833  0.62104758     0.29010
H2338       H  0.65388538  0.39090048  0.57998715     0.29010
H2339       H  0.70732362  0.39552809  0.57088002     0.19600
H2340       H  0.68732840  0.40523514  0.63546935     0.19610
C2341       C  0.85494344  0.59436199  0.46681345    -0.06230
C2342       C  0.84920328  0.61172734  0.46074760    -0.17350
C2343       C  0.85222872  0.61754967  0.44262965     0.10970
C2344       C  0.86209669  0.60615186  0.43023931    -0.06150
C2345       C  0.86816790  0.58886965  0.43644851    -0.17390
C2346       C  0.86469457  0.58287088  0.45451633     0.11000
S2347       S  0.84162408  0.63894188  0.43591881    -0.32350
S2348       S  0.87304954  0.56045103  0.46105940    -0.32360
H2349       H  0.87415690  0.56408878  0.48002590     0.29010
H2350       H  0.83499438  0.63209711  0.41909691     0.29010
H2351       H  0.84111486  0.62033566  0.46986579     0.19600
H2352       H  0.87583694  0.58001260  0.42722998     0.19610
C2353       C  0.75056576  0.47354854  0.52846812    -0.06230
C2354       C  0.75377013  0.45524169  0.52346139    -0.17350
C2355       C  0.75361453  0.44124676  0.53665966     0.10970
C2356       C  0.75034451  0.44571420  0.55528028    -0.06150
C2357       C  0.74718943  0.46403554  0.56029575    -0.17390
C2358       C  0.74720491  0.47802018  0.54706823     0.11000
S2359       S  0.75775354  0.41805930  0.52889879    -0.32350
S2360       S  0.74315151  0.50122497  0.55483059    -0.32360
H2361       H  0.73518449  0.50783449  0.53852313     0.29010
H2362       H  0.74691161  0.40924029  0.54232485     0.29010
H2363       H  0.75636101  0.45185440  0.50915748     0.19600
H2364       H  0.74472778  0.46743759  0.57461723     0.19610
C2365       C  0.78259799  0.52571475  0.49736100    -0.06230
C2366       C  0.79099479  0.53052953  0.51407600    -0.17350
C2367       C  0.80534488  0.54317795  0.51478233     0.10970
C2368       C  0.80971646  0.55386663  0.49899720    -0.06150
C2369       C  0.80113448  0.54924335  0.48227536    -0.17390
C2370       C  0.78890050  0.53446425  0.48105045     0.11000
S2371       S  0.81845958  0.54323103  0.53579041    -0.32350
S2372       S  0.78361949  0.52654146  0.45814969    -0.32360
H2373       H  0.78153430  0.50798191  0.46327379     0.29010
H2374       H  0.83544008  0.54621864  0.52694278     0.29010
H2375       H  0.78680667  0.52404355  0.52685073     0.19600
H2376       H  0.80430777  0.55672941  0.46977250     0.19610
C2377       C  0.72059208  0.50375230  0.47485379    -0.06230
C2378       C  0.71190212  0.48709900  0.47031695    -0.17350
C2379       C  0.69755417  0.48639106  0.45771717     0.10970
C2380       C  0.69344876  0.50205945  0.44683373    -0.06150
C2381       C  0.70238345  0.51869551  0.45108932    -0.17390
C2382       C  0.71467744  0.51998189  0.46578430     0.11000
S2383       S  0.68409228  0.46556413  0.45794411    -0.32350
S2384       S  0.72051572  0.54290374  0.47320479    -0.32360
H2385       H  0.72227489  0.53817836  0.49191430     0.29010
H2386       H  0.66723498  0.47454924  0.45498965     0.29010
H2387       H  0.71583075  0.47439523  0.47702791     0.19600
H2388       H  0.69939149  0.53109247  0.44339772     0.19610
C2389       C  0.82113315  0.39082073  0.60471006    -0.06230
C2390       C  0.80799380  0.39525362  0.61831173    -0.17350
C2391       C  0.79037217  0.40144511  0.61377922     0.10970
C2392       C  0.78507202  0.40244111  0.59512287    -0.06150
C2393       C  0.79792644  0.39742544  0.58150995    -0.17390
C2394       C  0.81587302  0.39212264  0.58599688     0.11000
S2395       S  0.77591617  0.40907702  0.63246427    -0.32350
S2396       S  0.83135980  0.38792538  0.56709261    -0.32360
H2397       H  0.84423035  0.40099778  0.57316700     0.29010
H2398       H  0.76893192  0.42443690  0.62299385     0.29010
H2399       H  0.81162955  0.39456379  0.63274632     0.19600
H2400       H  0.79411675  0.39822713  0.56711657     0.19610
C2401       C  0.85438299  0.61148932  0.57154329    -0.06230
C2402       C  0.85603191  0.62375777  0.55666584    -0.17350
C2403       C  0.85038978  0.61881786  0.53886102     0.10970
C2404       C  0.84399172  0.60068998  0.53550630    -0.06150
C2405       C  0.84249682  0.58857475  0.55064393    -0.17390
C2406       C  0.84731586  0.59378266  0.56845063     0.11000
S2407       S  0.85073761  0.63666572  0.52158722    -0.32350
S2408       S  0.84494993  0.57683464  0.58649644    -0.32360
H2409       H  0.86146379  0.58128027  0.59540718     0.29010
H2410       H  0.83533264  0.63010400  0.51200038     0.29010
H2411       H  0.86132431  0.63748659  0.55904767     0.19600
H2412       H  0.83810477  0.57452374  0.54860040     0.19610
C2413       C  0.90659648  0.15083382  0.53462892    -0.06230
C2414       C  0.91976127  0.14340814  0.54664177    -0.17350
C2415       C  0.91495847  0.13726496  0.56435533     0.10970
C2416       C  0.89651112  0.13872958  0.57049187    -0.06150
C2417       C  0.88334433  0.14579155  0.55822334    -0.17390
C2418       C  0.88816511  0.15210038  0.54067037     0.11000
S2419       S  0.93299924  0.12750461  0.57815824    -0.32350
S2420       S  0.87029051  0.16286664  0.52729161    -0.32360
H2421       H  0.88142463  0.17719508  0.52050176     0.29010
H2422       H  0.92252895  0.11211302  0.58353059     0.29010
H2423       H  0.93394100  0.14235986  0.54215743     0.19600
H2424       H  0.86916297  0.14720651  0.56258560     0.19610
C2425       C  0.96644149  0.34943240  0.59547309    -0.06230
C2426       C  0.95316050  0.35261074  0.58175238    -0.17350
C2427       C  0.93499791  0.35736568  0.58616079     0.10970
C2428       C  0.92997786  0.36037033  0.60475660    -0.06150
C2429       C  0.94350959  0.35804183  0.61836532    -0.17390
C2430       C  0.96129266  0.35210343  0.61405571     0.11000
S2431       S  0.91881385  0.35803894  0.56749363    -0.32350
S2432       S  0.97598346  0.34659450  0.63313985    -0.32360
H2433       H  0.98255101  0.33018107  0.62531576     0.29010
H2434       H  0.90622067  0.34625859  0.57637673     0.29010
H2435       H  0.95674088  0.35052242  0.56740969     0.19600
H2436       H  0.94003414  0.36007574  0.63273725     0.19610
C2437       C  0.99976282  0.28044235  0.52716750    -0.06230
C2438       C  0.99515304  0.27471473  0.54512166    -0.17350
C2439       C  0.99566970  0.28690490  0.55991871     0.10970
C2440       C  0.00107993  0.30524030  0.55679511    -0.06150
C2441       C  0.00557508  0.31107653  0.53893205    -0.17390
C2442       C  0.00461361  0.29901941  0.52403506     0.11000
S2443       S  0.98930055  0.27822101  0.58235464    -0.32350
S2444       S  0.00867840  0.30849941  0.50140534    -0.32360
H2445       H  0.99632745  0.29679395  0.49230416     0.29010
H2446       H  0.00015371  0.29038672  0.59264647     0.29010
H2447       H  0.99146752  0.26049696  0.54772283     0.19600
H2448       H  0.00928253  0.32532323  0.53651100     0.19610
C2449       C  0.05942510  0.24904146  0.44805302    -0.06230
C2450       C  0.04407657  0.26055615  0.44592484    -0.17350
C2451       C  0.03002254  0.26098476  0.45902410     0.10970
C2452       C  0.03103292  0.24938670  0.47459393    -0.06150
C2453       C  0.04618307  0.23777964  0.47681879    -0.17390
C2454       C  0.06058642  0.23778915  0.46399504     0.11000
S2455       S  0.01134458  0.27685110  0.45508438    -0.32350
S2456       S  0.08045284  0.22412452  0.46956491    -0.32360
H2457       H  0.09321357  0.23667015  0.46214268     0.29010
H2458       H  0.99764365  0.26682893  0.46434331     0.29010
H2459       H  0.04287542  0.26919133  0.43380279     0.19600
H2460       H  0.04707711  0.22913367  0.48896495     0.19610
C2461       C  0.97135027  0.22498762  0.49857315    -0.06230
C2462       C  0.96119847  0.22160527  0.51478325    -0.17350
C2463       C  0.94652086  0.20925854  0.51514469     0.10970
C2464       C  0.94347259  0.19760221  0.49985198    -0.06150
C2465       C  0.95387565  0.20073109  0.48374628    -0.17390
C2466       C  0.96654919  0.21509882  0.48251169     0.11000
S2467       S  0.93139992  0.21065854  0.53486303    -0.32350
S2468       S  0.97441162  0.22101966  0.45964697    -0.32360
H2469       H  0.97512285  0.24003948  0.46303141     0.29010
H2470       H  0.91530678  0.20685060  0.52490522     0.29010
H2471       H  0.96421842  0.22902873  0.52729967     0.19600
H2472       H  0.95181021  0.19234802  0.47164945     0.19610
C2473       C  0.39028279  0.14734403  0.92962252    -0.06230
C2474       C  0.39440549  0.13387870  0.94294180    -0.17350
C2475       C  0.39999833  0.13852070  0.96070570     0.10970
C2476       C  0.40038318  0.15720567  0.96610586    -0.06150
C2477       C  0.39548838  0.17068249  0.95305411    -0.17390
C2478       C  0.39111327  0.16606481  0.93486120     0.11000
S2479       S  0.40795210  0.11986068  0.97502873    -0.32350
S2480       S  0.38764772  0.18480175  0.91901497    -0.32360
H2481       H  0.40129503  0.17857589  0.90673622     0.29010
H2482       H  0.42340728  0.12938339  0.98160644     0.29010
H2483       H  0.39412052  0.11944317  0.93930299     0.19600
H2484       H  0.39576890  0.18507778  0.95684824     0.19610
C2485       C  0.53450042  0.34744640  0.09713412    -0.06230
C2486       C  0.54727599  0.33345107  0.10098951    -0.17350
C2487       C  0.56521916  0.33743313  0.10664164     0.10970
C2488       C  0.57055861  0.35593199  0.10949716    -0.06150
C2489       C  0.55751158  0.36987830  0.10618888    -0.17390
C2490       C  0.53987340  0.36592740  0.09966356     0.11000
S2491       S  0.58066768  0.31825549  0.10902661    -0.32350
S2492       S  0.52546739  0.38520677  0.09369594    -0.32360
H2493       H  0.51787831  0.37700871  0.07794565     0.29010
H2494       H  0.59385073  0.32583864  0.09696767     0.29010
H2495       H  0.54340278  0.31920183  0.09900208     0.19600
H2496       H  0.56123096  0.38417283  0.10807898     0.19610
C2497       C  0.46513026  0.35121345  0.09557802    -0.06230
C2498       C  0.46013951  0.34861498  0.11403553    -0.17350
C2499       C  0.44284658  0.35402321  0.12060955     0.10970
C2500       C  0.42975213  0.36171470  0.10829305    -0.06150
C2501       C  0.43506441  0.36470561  0.08991808    -0.17390
C2502       C  0.45261583  0.36000142  0.08359719     0.11000
S2503       S  0.43846815  0.35019362  0.14473817    -0.32350
S2504       S  0.45834231  0.36618985  0.06022688    -0.32360
H2505       H  0.47724091  0.36864036  0.06334380     0.29010
H2506       H  0.43528729  0.36895995  0.14822916     0.29010
H2507       H  0.46971219  0.34204964  0.12336743     0.19600
H2508       H  0.42556309  0.37104041  0.08036786     0.19610
C2509       C  0.49908838  0.30966607  0.05250756    -0.06230
C2510       C  0.51043611  0.29420906  0.05485828    -0.17350
C2511       C  0.51075277  0.28002038  0.04199170     0.10970
C2512       C  0.49922762  0.28103806  0.02646187    -0.06150
C2513       C  0.48780936  0.29629549  0.02401912    -0.17390
C2514       C  0.48793487  0.31081289  0.03659214     0.11000
S2515       S  0.52632338  0.26113074  0.04614482    -0.32350
S2516       S  0.47461336  0.33081058  0.03069369    -0.32360
H2517       H  0.48727038  0.34344533  0.03795771     0.29010
H2518       H  0.51594710  0.24749381  0.03733119     0.29010
H2519       H  0.51900268  0.29303308  0.06697302     0.19600
H2520       H  0.47926356  0.29719774  0.01186340     0.19610
C2521       C  0.47372894  0.22218419  0.00213701    -0.06230
C2522       C  0.47052313  0.21179178  0.98614234    -0.17350
C2523       C  0.45807977  0.19719431  0.98602776     0.10970
C2524       C  0.44600982  0.19460245  0.00119766    -0.06150
C2525       C  0.44887659  0.20530945  0.01703889    -0.17390
C2526       C  0.46343150  0.21775854  0.01818078     0.11000
S2527       S  0.45999907  0.18149617  0.96689227    -0.32350
S2528       S  0.46910098  0.22563615  0.04100860    -0.32360
H2529       H  0.48818243  0.22574980  0.03786046     0.29010
H2530       H  0.45597348  0.16568504  0.97737430     0.29010
H2531       H  0.47819758  0.21447166  0.97363778     0.19600
H2532       H  0.44021118  0.20356951  0.02905530     0.19610
C2533       C  0.59723544  0.28562946  0.90366672    -0.06230
C2534       C  0.60618644  0.29759551  0.91578761    -0.17350
C2535       C  0.61034907  0.31566740  0.91064399     0.10970
C2536       C  0.60561824  0.32202628  0.89288671    -0.06150
C2537       C  0.59676827  0.31006865  0.88067787    -0.17390
C2538       C  0.59243154  0.29198682  0.88590658     0.11000
S2539       S  0.62121545  0.33011817  0.92757343    -0.32350
S2540       S  0.58060214  0.27783007  0.86940895    -0.32360
H2541       H  0.56982928  0.26812018  0.88226679     0.29010
H2542       H  0.61277989  0.34657110  0.92190400     0.29010
H2543       H  0.60956018  0.29292639  0.92955301     0.19600
H2544       H  0.59334490  0.31480005  0.86694953     0.19610
C2545       C  0.55527635  0.25019995  0.94465028    -0.06230
C2546       C  0.55739551  0.23797745  0.95955490    -0.17350
C2547       C  0.54490647  0.23771586  0.97419737     0.10970
C2548       C  0.53009207  0.25015750  0.97416672    -0.06150
C2549       C  0.52785034  0.26230715  0.95934819    -0.17390
C2550       C  0.53994565  0.26217096  0.94440039     0.11000
S2551       S  0.54872113  0.22134721  0.99249931    -0.32350
S2552       S  0.53427702  0.27677920  0.92511044    -0.32360
H2553       H  0.54136669  0.26488997  0.91159451     0.29010
H2554       H  0.54058278  0.23179362  0.00659486     0.29010
H2555       H  0.56910281  0.22879057  0.96001781     0.19600
H2556       H  0.51613234  0.27151191  0.95912310     0.19610
C2557       C  0.15331142  0.03494994  0.40417357    -0.06230
C2558       C  0.16206556  0.04329832  0.38913051    -0.17350
C2559       C  0.15780547  0.06133632  0.38390986     0.10970
C2560       C  0.14407540  0.07119806  0.39363127    -0.06150
C2561       C  0.13543978  0.06283347  0.40879729    -0.17390
C2562       C  0.13985899  0.04484645  0.41412010     0.11000
S2563       S  0.17130704  0.07135764  0.36556731    -0.32350
S2564       S  0.12815268  0.03543945  0.43396882    -0.32360
H2565       H  0.12923101  0.01691149  0.42866632     0.29010
H2566       H  0.17234841  0.08892890  0.37357048     0.29010
H2567       H  0.17287612  0.03598489  0.38191066     0.19600
H2568       H  0.12491589  0.07022030  0.41634989     0.19610
C2569       C  0.11011533  0.17920918  0.39291724    -0.06230
C2570       C  0.11493062  0.18507535  0.41065460    -0.17350
C2571       C  0.11070511  0.20281224  0.41680044     0.10970
C2572       C  0.10108735  0.21504620  0.40516347    -0.06150
C2573       C  0.09655995  0.20942056  0.38733764    -0.17390
C2574       C  0.10071603  0.19166931  0.38116348     0.11000
S2575       S  0.11827834  0.20910270  0.43953083    -0.32350
S2576       S  0.09249324  0.18558066  0.35861351    -0.32360
H2577       H  0.08537055  0.16847879  0.36430779     0.29010
H2578       H  0.11994623  0.22804581  0.43595742     0.29010
H2579       H  0.12236303  0.17589167  0.41973654     0.19600
H2580       H  0.08891819  0.21864420  0.37846257     0.19610
C2581       C  0.07191373  0.10827595  0.35499762    -0.06230
C2582       C  0.05852801  0.10509394  0.36873374    -0.17350
C2583       C  0.04079553  0.09902303  0.36444181     0.10970
C2584       C  0.03567610  0.09696103  0.34581052    -0.06150
C2585       C  0.04884363  0.10073786  0.33205549    -0.17390
C2586       C  0.06688303  0.10572840  0.33638086     0.11000
S2587       S  0.02598530  0.09298430  0.38349033    -0.32350
S2588       S  0.08284059  0.10759098  0.31746018    -0.32360
H2589       H  0.09559319  0.09543883  0.32546196     0.29010
H2590       H  0.01829984  0.07748115  0.37492039     0.29010
H2591       H  0.06203424  0.10673435  0.38311829     0.19600
H2592       H  0.04521248  0.09916471  0.31768757     0.19610
C2593       C  0.99898332  0.02610943  0.28028938    -0.06230
C2594       C  0.99466977  0.04419064  0.27495582    -0.17350
C2595       C  0.99509688  0.05861277  0.28754684     0.10970
C2596       C  0.99995803  0.05495196  0.30593969    -0.06150
C2597       C  0.00416270  0.03695041  0.31139668    -0.17390
C2598       C  0.00341951  0.02242854  0.29887705     0.11000
S2599       S  0.98954438  0.08134273  0.27923262    -0.32350
S2600       S  0.00737959  0.99957585  0.30773958    -0.32360
H2601       H  0.99554547  0.99065027  0.29538821     0.29010
H2602       H  0.00094103  0.09098865  0.29143394     0.29010
H2603       H  0.99137780  0.04719781  0.26071944     0.19600
H2604       H  0.00756576  0.03414510  0.32564830     0.19610
C2605       C  0.09661641  0.90230364  0.28457506    -0.06230
C2606       C  0.11465192  0.90609201  0.28992154    -0.17350
C2607       C  0.12089021  0.90158110  0.30756157     0.10970
C2608       C  0.10898819  0.89263911  0.32030032    -0.06150
C2609       C  0.09100657  0.88851262  0.31468118    -0.17390
C2610       C  0.08478866  0.89305650  0.29700757     0.11000
S2611       S  0.14364152  0.90913764  0.31332360    -0.32350
S2612       S  0.06174820  0.88627586  0.29104244    -0.32360
H2613       H  0.06501908  0.88445992  0.27204238     0.29010
H2614       H  0.13678948  0.91993989  0.32779675     0.29010
H2615       H  0.12370983  0.91340916  0.28054573     0.19600
H2616       H  0.08174951  0.88141679  0.32401672     0.19610
C2617       C  0.03027364  0.97426847  0.24858909    -0.06230
C2618       C  0.02791217  0.95981049  0.26115705    -0.17350
C2619       C  0.03979808  0.94476793  0.26134692     0.10970
C2620       C  0.05518803  0.94455173  0.24935975    -0.06150
C2621       C  0.05749097  0.95918112  0.23677085    -0.17390
C2622       C  0.04508678  0.97385628  0.23608239     0.11000
S2623       S  0.03356919  0.92585719  0.27620806    -0.32350
S2624       S  0.04891062  0.99149478  0.21897801    -0.32360
H2625       H  0.04019273  0.00583301  0.22854857     0.29010
H2626       H  0.03969551  0.91215752  0.26401154     0.29010
H2627       H  0.01618293  0.95990001  0.27041750     0.19600
H2628       H  0.06919857  0.95934709  0.22751322     0.19610
C2629       C  0.94285041  0.00005861  0.19701807    -0.06230
C2630       C  0.95328654  0.98399504  0.19993478    -0.17350
C2631       C  0.96607503  0.98270186  0.21414332     0.10970
C2632       C  0.97092701  0.99867636  0.22412413    -0.06150
C2633       C  0.96069310  0.01483591  0.22101608    -0.17390
C2634       C  0.94595143  0.01524322  0.20876904     0.11000
S2635       S  0.97408445  0.95985871  0.21968769    -0.32350
S2636       S  0.93085556  0.03486943  0.21033883    -0.32360
H2637       H  0.91480897  0.02499230  0.20608652     0.29010
H2638       H  0.97516526  0.96300889  0.23875883     0.29010
H2639       H  0.95122085  0.97197869  0.19144275     0.19600
H2640       H  0.96373259  0.02727660  0.22855181     0.19610
C2641       C  0.93107309  0.10847575  0.36134538    -0.06230
C2642       C  0.93445711  0.08958896  0.35925017    -0.17350
C2643       C  0.95170553  0.08301023  0.35380126     0.10970
C2644       C  0.96591194  0.09558206  0.34915640    -0.06150
C2645       C  0.96274026  0.11441364  0.35174970    -0.17390
C2646       C  0.94583436  0.12092838  0.35828627     0.11000
S2647       S  0.95474342  0.05837254  0.35388480    -0.32350
S2648       S  0.94443727  0.14523546  0.36279231    -0.32360
H2649       H  0.93690199  0.14278075  0.38051651     0.29010
H2650       H  0.97334788  0.05886861  0.35902916     0.29010
H2651       H  0.92362368  0.07974566  0.36207060     0.19600
H2652       H  0.97352095  0.12421948  0.34860749     0.19610
C2653       C  0.82202519  0.10802007  0.39103164    -0.06230
C2654       C  0.80773781  0.10663258  0.37824002    -0.17350
C2655       C  0.78998694  0.10141668  0.38373900     0.10970
C2656       C  0.78614041  0.09841015  0.40266695    -0.06150
C2657       C  0.80053301  0.10032676  0.41542599    -0.17390
C2658       C  0.81834310  0.10489581  0.40982791     0.11000
S2659       S  0.77337504  0.09778081  0.36577228    -0.32350
S2660       S  0.83577610  0.10648578  0.42735004    -0.32360
H2661       H  0.84552884  0.12110621  0.41923706     0.29010
H2662       H  0.76524291  0.08227268  0.37407036     0.29010
H2663       H  0.81057107  0.10911921  0.36377907     0.19600
H2664       H  0.79789899  0.09825790  0.42998252     0.19610
C2665       C  0.88887412  0.14703669  0.42985224    -0.06230
C2666       C  0.89785821  0.13418622  0.44120461    -0.17350
C2667       C  0.90399343  0.13882192  0.45878012     0.10970
C2668       C  0.90064897  0.15663373  0.46568288    -0.06150
C2669       C  0.89127591  0.16939675  0.45460024    -0.17390
C2670       C  0.88523717  0.16478531  0.43690448     0.11000
S2671       S  0.91706834  0.12171790  0.47111316    -0.32350
S2672       S  0.87260534  0.18199662  0.42437279    -0.32360
H2673       H  0.85907680  0.16963686  0.41825687     0.29010
H2674       H  0.92991836  0.13413744  0.47840866     0.29010
H2675       H  0.90086995  0.12052866  0.43607885     0.19600
H2676       H  0.88861673  0.18309503  0.45981679     0.19610
C2677       C  0.86225410  0.93079704  0.60629521    -0.06230
C2678       C  0.84333403  0.93400600  0.60687513    -0.17350
C2679       C  0.83613306  0.95142624  0.60335859     0.10970
C2680       C  0.84795712  0.96590232  0.59791920    -0.06150
C2681       C  0.86702388  0.96285830  0.59787582    -0.17390
C2682       C  0.87432482  0.94551592  0.60230801     0.11000
S2683       S  0.81194572  0.95449300  0.60762981    -0.32350
S2684       S  0.89900005  0.94333260  0.60331195    -0.32360
H2685       H  0.89995150  0.92417344  0.60118776     0.29010
H2686       H  0.81296451  0.97326100  0.61209653     0.29010
H2687       H  0.83411166  0.92298470  0.61093187     0.19600
H2688       H  0.87624570  0.97399808  0.59422347     0.19610
C2689       C  0.93134560  0.64432128  0.38941044    -0.06230
C2690       C  0.93503750  0.66316399  0.39151543    -0.17350
C2691       C  0.95233340  0.66944956  0.39710994     0.10970
C2692       C  0.96623705  0.65662987  0.40179600    -0.06150
C2693       C  0.96274676  0.63785626  0.39920105    -0.17390
C2694       C  0.94583683  0.63162215  0.39258919     0.11000
S2695       S  0.95587432  0.69401004  0.39718033    -0.32350
S2696       S  0.94410768  0.60731384  0.38817263    -0.32360
H2697       H  0.93689327  0.60981129  0.37038338     0.29010
H2698       H  0.97458322  0.69318359  0.39231856     0.29010
H2699       H  0.92441242  0.67318451  0.38862350     0.19600
H2700       H  0.97330436  0.62785577  0.40240589     0.19610
C2701       C  0.09687748  0.85026770  0.46568752    -0.06230
C2702       C  0.08458799  0.86036556  0.45473893    -0.17350
C2703       C  0.08947914  0.86636558  0.43700663     0.10970
C2704       C  0.10698483  0.86187410  0.42974245    -0.06150
C2705       C  0.11931287  0.85200689  0.44090997    -0.17390
C2706       C  0.11441575  0.84598141  0.45854638     0.11000
S2707       S  0.07300229  0.88016305  0.42475375    -0.32350
S2708       S  0.13082956  0.83195399  0.47073850    -0.32360
H2709       H  0.11779260  0.81987432  0.47844569     0.29010
H2710       H  0.08607387  0.89308943  0.41862778     0.29010
H2711       H  0.07108707  0.86369996  0.46012178     0.19600
H2712       H  0.13275699  0.84832031  0.43562469     0.19610
C2713       C  0.90332849  0.71585815  0.59557378    -0.06230
C2714       C  0.91705189  0.70252424  0.59852853    -0.17350
C2715       C  0.91282250  0.68456267  0.60391893     0.10970
C2716       C  0.89441548  0.67979472  0.60800532    -0.06150
C2717       C  0.88070618  0.69328754  0.60559790    -0.17390
C2718       C  0.88482615  0.71093185  0.59893995     0.11000
S2719       S  0.93157005  0.66840879  0.60432844    -0.32350
S2720       S  0.86566654  0.72580370  0.59391607    -0.32360
H2721       H  0.87376691  0.73394013  0.57828002     0.29010
H2722       H  0.92268098  0.65591581  0.59256904     0.29010
H2723       H  0.93134058  0.70597206  0.59610534     0.19600
H2724       H  0.86644791  0.68991967  0.60829762     0.19610
C2725       C  0.90390245  0.78618293  0.59709018    -0.06230
C2726       C  0.90390685  0.80063793  0.58407959    -0.17350
C2727       C  0.89936341  0.81865593  0.58888162     0.10970
C2728       C  0.89275512  0.82243436  0.60676391    -0.06150
C2729       C  0.89203531  0.80795145  0.61966455    -0.17390
C2730       C  0.89794997  0.79008221  0.61526732     0.11000
S2731       S  0.90390918  0.83625266  0.57194670    -0.32350
S2732       S  0.89930704  0.77326049  0.63358416    -0.32360
H2733       H  0.88856903  0.78285634  0.64652495     0.29010
H2734       H  0.91312544  0.84778909  0.58441179     0.29010
H2735       H  0.90821584  0.79808796  0.57002241     0.19600
H2736       H  0.88736957  0.81078640  0.63353644     0.19610
C2737       C  0.97139360  0.75177391  0.52636089    -0.06230
C2738       C  0.97279960  0.73864384  0.54043397    -0.17350
C2739       C  0.96064624  0.73862495  0.55532330     0.10970
C2740       C  0.94612252  0.75155464  0.55579258    -0.06150
C2741       C  0.94479830  0.76473657  0.54165338    -0.17390
C2742       C  0.95730017  0.76504125  0.52701913     0.11000
S2743       S  0.96521078  0.72246735  0.57364977    -0.32350
S2744       S  0.95432610  0.78244646  0.50953680    -0.32360
H2745       H  0.96175613  0.77215697  0.49494228     0.29010
H2746       H  0.95873548  0.73384955  0.58788901     0.29010
H2747       H  0.98394883  0.72875414  0.54016410     0.19600
H2748       H  0.93367597  0.77464434  0.54178050     0.19610
C2749       C  0.00357811  0.72094082  0.47461099    -0.06230
C2750       C  0.00312663  0.72643669  0.45608649    -0.17350
C2751       C  0.00223585  0.71354881  0.44193375     0.10970
C2752       C  0.00166533  0.69466853  0.44641646    -0.06150
C2753       C  0.00221057  0.68909976  0.46489555    -0.17390
C2754       C  0.00325644  0.70202966  0.47905915     0.11000
S2755       S  0.00127799  0.72226896  0.41862436    -0.32350
S2756       S  0.00442515  0.69354228  0.50238451    -0.32360
H2757       H  0.01453907  0.70840049  0.50941928     0.29010
H2758       H  0.00744364  0.70649741  0.40940945     0.29010
H2759       H  0.00311442  0.74095444  0.45263712     0.19600
H2760       H  0.00198865  0.67457046  0.46827220     0.19610
C2761       C  0.02781005  0.78036354  0.49919288    -0.06230
C2762       C  0.03116148  0.79031592  0.51543878    -0.17350
C2763       C  0.04379848  0.80483652  0.51591406     0.10970
C2764       C  0.05560904  0.80782387  0.50061489    -0.06150
C2765       C  0.05250351  0.79756105  0.48451138    -0.17390
C2766       C  0.03794280  0.78516420  0.48318783     0.11000
S2767       S  0.04310575  0.82026469  0.53544045    -0.32350
S2768       S  0.03212919  0.77768015  0.46025289    -0.32360
H2769       H  0.01308159  0.77701662  0.46358174     0.29010
H2770       H  0.02816810  0.81211945  0.54471838     0.29010
H2771       H  0.02364387  0.78701288  0.52786969     0.19600
H2772       H  0.06102377  0.79960269  0.47243692     0.19610
C2773       C  0.11383721  0.85505718  0.57068839    -0.06230
C2774       C  0.10725130  0.86823548  0.55810425    -0.17350
C2775       C  0.10124979  0.86337013  0.54052996     0.10970
C2776       C  0.10234101  0.84485632  0.53477267    -0.06150
C2777       C  0.10935428  0.83168331  0.54708316    -0.17390
C2778       C  0.11518247  0.83653380  0.56481784     0.11000
S2779       S  0.09106074  0.88133207  0.52675573    -0.32350
S2780       S  0.12428124  0.81841374  0.57903326    -0.32360
H2781       H  0.14004864  0.82845507  0.58391622     0.29010
H2782       H  0.07658474  0.87041770  0.52011873     0.29010
H2783       H  0.10598453  0.88249453  0.56220608     0.19600
H2784       H  0.11027889  0.81743705  0.54283644     0.19610
C2785       C  0.18100559  0.89464939  0.60791247    -0.06230
C2786       C  0.19216340  0.90526008  0.61946315    -0.17350
C2787       C  0.21021973  0.90980171  0.61434656     0.10970
C2788       C  0.21736896  0.90340570  0.59740215    -0.06150
C2789       C  0.20616357  0.89282316  0.58589435    -0.17390
C2790       C  0.18810388  0.88850109  0.59087312     0.11000
S2791       S  0.22329407  0.92391868  0.62991034    -0.32350
S2792       S  0.17458855  0.87568265  0.57455099    -0.32360
H2793       H  0.15779334  0.88429766  0.57875509     0.29010
H2794       H  0.23344264  0.93333122  0.61634555     0.29010
H2795       H  0.18683114  0.90990852  0.63260569     0.19600
H2796       H  0.21141398  0.88827803  0.57267742     0.19610
C2797       C  0.71607276  0.34581123  0.15116825    -0.06230
C2798       C  0.70526086  0.33304907  0.14158676    -0.17350
C2799       C  0.68760135  0.33760282  0.13537107     0.10970
C2800       C  0.68024591  0.35519720  0.13924579    -0.06150
C2801       C  0.69132688  0.36800912  0.14853820    -0.17390
C2802       C  0.70892473  0.36347552  0.15469602     0.11000
S2803       S  0.67553100  0.32058988  0.12212354    -0.32350
S2804       S  0.72111263  0.38056234  0.16783156    -0.32360
H2805       H  0.72931135  0.36817484  0.18021324     0.29010
H2806       H  0.66925534  0.33324221  0.10886401     0.29010
H2807       H  0.71066964  0.31942618  0.13889538     0.19600
H2808       H  0.68599657  0.38155825  0.15169482     0.19610
C2809       C  0.85100858  0.15662627  0.28414030    -0.06230
C2810       C  0.84804443  0.13842697  0.28978357    -0.17350
C2811       C  0.85246388  0.13254479  0.30754326     0.10970
C2812       C  0.86063717  0.14499801  0.32009127    -0.06150
C2813       C  0.86399513  0.16313847  0.31426397    -0.17390
C2814       C  0.85945454  0.16902467  0.29646894     0.11000
S2815       S  0.84601496  0.10932805  0.31347786    -0.32350
S2816       S  0.86522080  0.19236652  0.29025862    -0.32360
H2817       H  0.86744434  0.18895620  0.27133131     0.29010
H2818       H  0.83749747  0.11438064  0.33015064     0.29010
H2819       H  0.84125306  0.12891700  0.28057351     0.19600
H2820       H  0.87047426  0.17278563  0.32354303     0.19610
C2821       C  0.77880576  0.22385627  0.25087535    -0.06230
C2822       C  0.78879445  0.22027078  0.23462988    -0.17350
C2823       C  0.80347200  0.20790947  0.23435755     0.10970
C2824       C  0.80662977  0.19638481  0.24980295    -0.06150
C2825       C  0.79628610  0.19961218  0.26589706    -0.17390
C2826       C  0.78369347  0.21404618  0.26703332     0.11000
S2827       S  0.81853849  0.20922894  0.21458612    -0.32350
S2828       S  0.77618677  0.22021186  0.28992171    -0.32360
H2829       H  0.77586314  0.23924288  0.28638617     0.29010
H2830       H  0.83466999  0.20559775  0.22456660     0.29010
H2831       H  0.78572920  0.22762629  0.22204489     0.19600
H2832       H  0.79841684  0.19131752  0.27809222     0.19610
C2833       C  0.75173735  0.28113516  0.22416751    -0.06230
C2834       C  0.74965973  0.27585715  0.20575234    -0.17350
C2835       C  0.74899488  0.28894594  0.19171684     0.10970
C2836       C  0.75017279  0.30774772  0.19623854    -0.06150
C2837       C  0.75229296  0.31306509  0.21463569    -0.17390
C2838       C  0.75317896  0.29993328  0.22867232     0.11000
S2839       S  0.74659958  0.28078559  0.16840433    -0.32350
S2840       S  0.75637957  0.30797655  0.25190104    -0.32360
H2841       H  0.76591134  0.29239956  0.25823684     0.29010
H2842       H  0.75680757  0.29489647  0.15994702     0.29010
H2843       H  0.74845794  0.26140696  0.20231678     0.19600
H2844       H  0.75342167  0.32752729  0.21802779     0.19610
C2845       C  0.65279109  0.21596323  0.34688825    -0.06230
C2846       C  0.65021090  0.20224130  0.33348215    -0.17350
C2847       C  0.64540106  0.18424104  0.33819157     0.10970
C2848       C  0.64130902  0.17982891  0.35671987    -0.06150
C2849       C  0.64316725  0.19370952  0.37009923    -0.17390
C2850       C  0.64939361  0.21139893  0.36554641     0.11000
S2851       S  0.64604096  0.16751729  0.31995684    -0.32350
S2852       S  0.65389478  0.22678833  0.38441467    -0.32360
H2853       H  0.66979502  0.23451354  0.37649762     0.29010
H2854       H  0.65743516  0.15535083  0.32979646     0.29010
H2855       H  0.65263599  0.20536661  0.31908301     0.19600
H2856       H  0.64040564  0.19061511  0.38444848     0.19610
C2857       C  0.69239447  0.25066152  0.30304114    -0.06230
C2858       C  0.70703626  0.26316379  0.30410251    -0.17350
C2859       C  0.72114837  0.26312851  0.29109409     0.10970
C2860       C  0.72074154  0.25028529  0.27658076    -0.06150
C2861       C  0.70624753  0.23771453  0.27542841    -0.17390
C2862       C  0.69188235  0.23797214  0.28826120     0.11000
S2863       S  0.73940548  0.27965973  0.29399056    -0.32350
S2864       S  0.67298821  0.22243205  0.28432836    -0.32360
H2865       H  0.65938099  0.23417679  0.29146610     0.29010
H2866       H  0.75348550  0.26863734  0.28665164     0.29010
H2867       H  0.70775581  0.27278027  0.31544401     0.19600
H2868       H  0.70583774  0.22804393  0.26410640     0.19610
C2869       C  0.64307026  0.89258617  0.42946548    -0.06230
C2870       C  0.66130923  0.88933538  0.43478857    -0.17350
C2871       C  0.66752559  0.89386126  0.45242062     0.10970
C2872       C  0.65546392  0.90235707  0.46511826    -0.06150
C2873       C  0.63715737  0.90528356  0.46005187    -0.17390
C2874       C  0.63086858  0.90071020  0.44243683     0.11000
S2875       S  0.69086275  0.88783553  0.45802036    -0.32350
S2876       S  0.60740391  0.90663202  0.43728307    -0.32360
H2877       H  0.61183201  0.91520367  0.42043637     0.29010
H2878       H  0.68778615  0.88534241  0.47699151     0.29010
H2879       H  0.67077479  0.88283298  0.42526877     0.19600
H2880       H  0.62786459  0.91193463  0.46964763     0.19610
C2881       C  0.64096906  0.89544189  0.57049351    -0.06230
C2882       C  0.64607685  0.88170312  0.55779321    -0.17350
C2883       C  0.65269593  0.88604431  0.54018356     0.10970
C2884       C  0.65385257  0.90462358  0.53464734    -0.06150
C2885       C  0.64834848  0.91835929  0.54708264    -0.17390
C2886       C  0.64188113  0.91405193  0.56476026     0.11000
S2887       S  0.66049899  0.86725571  0.52599922    -0.32350
S2888       S  0.63498040  0.93303208  0.57906169    -0.32360
H2889       H  0.61790436  0.92511947  0.58361586     0.29010
H2890       H  0.67542804  0.87678565  0.51815653     0.29010
H2891       H  0.64559753  0.86734711  0.56179643     0.19600
H2892       H  0.64905767  0.93267576  0.54293226     0.19610
C2893       C  0.60235143  0.71626894  0.40581839    -0.06230
C2894       C  0.60645770  0.70294675  0.41931111    -0.17350
C2895       C  0.61045458  0.68471616  0.41465844     0.10970
C2896       C  0.61216164  0.67971481  0.39591793    -0.06150
C2897       C  0.60912242  0.69330869  0.38242524    -0.17390
C2898       C  0.60367043  0.71115463  0.38706120     0.11000
S2899       S  0.61189521  0.66848592  0.43336394    -0.32350
S2900       S  0.59723184  0.72601700  0.36824078    -0.32360
H2901       H  0.58124303  0.73264707  0.37690769     0.29010
H2902       H  0.59880807  0.65653275  0.42566545     0.29010
H2903       H  0.60568842  0.70651299  0.43376456     0.19600
H2904       H  0.61018365  0.68984588  0.36796081     0.19610
C2905       C  0.59724382  0.78538396  0.40124774    -0.06230
C2906       C  0.58948076  0.79272673  0.38517867    -0.17350
C2907       C  0.59402026  0.81049977  0.37910133     0.10970
C2908       C  0.60627643  0.82131437  0.38954191    -0.06150
C2909       C  0.61405499  0.81384108  0.40553833    -0.17390
C2910       C  0.60970400  0.79609837  0.41150014     0.11000
S2911       S  0.58425053  0.81830647  0.35770935    -0.32350
S2912       S  0.61988809  0.78838861  0.43279363    -0.32360
H2913       H  0.62019147  0.76955586  0.42869282     0.29010
H2914       H  0.60004182  0.82778724  0.35172351     0.29010
H2915       H  0.57981826  0.78456828  0.37735952     0.19600
H2916       H  0.62347863  0.82201728  0.41363832     0.19610
C2917       C  0.53594829  0.84628533  0.59854669    -0.06230
C2918       C  0.54937217  0.83273194  0.60183061    -0.17350
C2919       C  0.56732488  0.83729687  0.60700147     0.10970
C2920       C  0.57200288  0.85589860  0.61026436    -0.06150
C2921       C  0.55834204  0.86938397  0.60763297    -0.17390
C2922       C  0.54072785  0.86491404  0.60135790     0.11000
S2923       S  0.58365694  0.81874575  0.60811157    -0.32350
S2924       S  0.52565239  0.88382823  0.59593844    -0.32360
H2925       H  0.51861404  0.87582050  0.57983715     0.29010
H2926       H  0.59612896  0.82739555  0.59600992     0.29010
H2927       H  0.54603266  0.81837056  0.59970968     0.19600
H2928       H  0.56156275  0.88376126  0.60979072     0.19610
C2929       C  0.39747919  0.65822111  0.46607077    -0.06230
C2930       C  0.39702957  0.63934132  0.46225659    -0.17350
C2931       C  0.39168988  0.63270420  0.44505996     0.10970
C2932       C  0.38757952  0.64522692  0.43059227    -0.06150
C2933       C  0.38731257  0.66412527  0.43464290    -0.17390
C2934       C  0.39167541  0.67068611  0.45223676     0.11000
S2935       S  0.39049345  0.60805632  0.44286292    -0.32350
S2936       S  0.38887880  0.69500369  0.45621336    -0.32360
H2937       H  0.38520551  0.69335598  0.47517637     0.29010
H2938       H  0.37237639  0.60835452  0.43615068     0.29010
H2939       H  0.40122869  0.62955894  0.47271123     0.19600
H2940       H  0.38354557  0.67394121  0.42406220     0.19610
C2941       C  0.53151890  0.74986715  0.47487561    -0.06230
C2942       C  0.54091489  0.76624510  0.47048830    -0.17350
C2943       C  0.55533933  0.76656494  0.45776151     0.10970
C2944       C  0.55854690  0.75103535  0.44638247    -0.06150
C2945       C  0.54876810  0.73479157  0.45049166    -0.17390
C2946       C  0.53695471  0.73360055  0.46561997     0.11000
S2947       S  0.57008550  0.78649417  0.45860383    -0.32350
S2948       S  0.53148855  0.71063145  0.47344876    -0.32360
H2949       H  0.53019518  0.71543332  0.49216375     0.29010
H2950       H  0.58632556  0.77637430  0.45583921     0.29010
H2951       H  0.53757377  0.77897913  0.47740438     0.19600
H2952       H  0.55076220  0.72245050  0.44246268     0.19610
C2953       C  0.47159278  0.72429335  0.49941999    -0.06230
C2954       C  0.46763912  0.71449967  0.48319339    -0.17350
C2955       C  0.45620661  0.69907148  0.48332825     0.10970
C2956       C  0.44540809  0.69511223  0.49914562    -0.06150
C2957       C  0.44879555  0.70535130  0.51518984    -0.17390
C2958       C  0.46275518  0.71848273  0.51592708     0.11000
S2959       S  0.45805875  0.68406056  0.46364364    -0.32350
S2960       S  0.46971995  0.72529655  0.53875096    -0.32360
H2961       H  0.48861860  0.72535730  0.53457500     0.29010
H2962       H  0.45511808  0.66777402  0.47374336     0.29010
H2963       H  0.47409936  0.71815515  0.47023427     0.19600
H2964       H  0.44107761  0.70271603  0.52768965     0.19610
C2965       C  0.49937129  0.78038668  0.52737627    -0.06230
C2966       C  0.50329156  0.77531751  0.54555731    -0.17350
C2967       C  0.50385634  0.78846010  0.55951018     0.10970
C2968       C  0.50060713  0.80708908  0.55511373    -0.06150
C2969       C  0.49668119  0.81215769  0.53692535    -0.17390
C2970       C  0.49599428  0.79898328  0.52298912     0.11000
S2971       S  0.50888832  0.78061699  0.58254046    -0.32350
S2972       S  0.49104201  0.80678207  0.49993334    -0.32360
H2973       H  0.48276815  0.79047313  0.49379127     0.29010
H2974       H  0.49839553  0.79392875  0.59182008     0.29010
H2975       H  0.50597122  0.76102005  0.54886246     0.19600
H2976       H  0.49413294  0.82647117  0.53359657     0.19610
C2977       C  0.42977692  0.85762940  0.60624685    -0.06230
C2978       C  0.44118524  0.87025786  0.59705341    -0.17350
C2979       C  0.45925417  0.86561463  0.59210463     0.10970
C2980       C  0.46620150  0.84806113  0.59673033    -0.06150
C2981       C  0.45477316  0.83548084  0.60590461    -0.17390
C2982       C  0.43667212  0.83997191  0.61052590     0.11000
S2983       S  0.47260452  0.88258316  0.57978822    -0.32350
S2984       S  0.42286836  0.82220295  0.62104313    -0.32360
H2985       H  0.40606402  0.82794148  0.61346198     0.29010
H2986       H  0.48302478  0.87016609  0.56926986     0.29010
H2987       H  0.43603104  0.88386975  0.59382946     0.19600
H2988       H  0.45985605  0.82180104  0.60898191     0.19610
C2989       C  0.32299903  0.89293827  0.60727528    -0.06230
C2990       C  0.31288903  0.88160217  0.59544076    -0.17350
C2991       C  0.29492793  0.88618661  0.59024097     0.10970
C2992       C  0.28673763  0.90235598  0.59725113    -0.06150
C2993       C  0.29681243  0.91366135  0.60907500    -0.17390
C2994       C  0.31483616  0.90926264  0.61399902     0.11000
S2995       S  0.28331222  0.87078179  0.57469278    -0.32350
S2996       S  0.32696379  0.92563237  0.62802536    -0.32360
H2997       H  0.34420747  0.92282996  0.61967147     0.29010
H2998       H  0.27143909  0.88366829  0.56663653     0.29010
H2999       H  0.31897770  0.86900601  0.59031301     0.19600
H3000       H  0.29078273  0.92637589  0.61399184     0.19610
C3001       C  0.39671404  0.61017885  0.67992517    -0.06230
C3002       C  0.39364457  0.62186256  0.69497188    -0.17350
C3003       C  0.39906825  0.61685052  0.71282623     0.10970
C3004       C  0.40680984  0.59922758  0.71596212    -0.06150
C3005       C  0.40955881  0.58755015  0.70073752    -0.17390
C3006       C  0.40482838  0.59287744  0.68290834     0.11000
S3007       S  0.39672013  0.63402629  0.73052892    -0.32350
S3008       S  0.40871344  0.57661669  0.66463684    -0.32360
H3009       H  0.39208445  0.58037216  0.65559806     0.29010
H3010       H  0.41260038  0.62879143  0.74018284     0.29010
H3011       H  0.38747964  0.63524182  0.69269185     0.19600
H3012       H  0.41511826  0.57387048  0.70274289     0.19610
C3013       C  0.39587154  0.63955440  0.57071655    -0.06230
C3014       C  0.38282195  0.64822369  0.55939131    -0.17350
C3015       C  0.38733657  0.65461948  0.54177930     0.10970
C3016       C  0.40526092  0.65186572  0.53477891    -0.06150
C3017       C  0.41824873  0.64284889  0.54587239    -0.17390
C3018       C  0.41375808  0.63656493  0.56360498     0.11000
S3019       S  0.36987289  0.66726115  0.52954115    -0.32350
S3020       S  0.43133224  0.62443899  0.57609551    -0.32360
H3021       H  0.41946908  0.61034635  0.58211130     0.29010
H3022       H  0.38192035  0.68052310  0.52217041     0.29010
H3023       H  0.36907061  0.65076611  0.56456179     0.19600
H3024       H  0.43202034  0.64059690  0.54061559     0.19610
C3025       C  0.10730469  0.31984925  0.39052830    -0.06230
C3026       C  0.12039979  0.30883041  0.39959067    -0.17350
C3027       C  0.11602803  0.29128909  0.40627636     0.10970
C3028       C  0.09820002  0.28423311  0.40365352    -0.06150
C3029       C  0.08515985  0.29498028  0.39435046    -0.17390
C3030       C  0.08955440  0.31250129  0.38752943     0.11000
S3031       S  0.13360769  0.27894223  0.41865146    -0.32350
S3032       S  0.07210194  0.32433679  0.37459625    -0.32360
H3033       H  0.08424078  0.33004839  0.36056872     0.29010
H3034       H  0.12172905  0.27006752  0.43113614     0.29010
H3035       H  0.13407871  0.31412791  0.40206159     0.19600
H3036       H  0.07146267  0.28956067  0.39222000     0.19610
C3037       C  0.28558692  0.59586622  0.40115969    -0.06230
C3038       C  0.29763251  0.58244709  0.39418769    -0.17350
C3039       C  0.31522515  0.58701766  0.38771952     0.10970
C3040       C  0.32124325  0.60551917  0.38836456    -0.06150
C3041       C  0.30892926  0.61896147  0.39495746    -0.17390
C3042       C  0.29143763  0.61435659  0.40157166     0.11000
S3043       S  0.32903086  0.56858496  0.37864830    -0.32350
S3044       S  0.27784428  0.63258111  0.41149115    -0.32360
H3045       H  0.27049357  0.62187873  0.42590484     0.29010
H3046       H  0.33420619  0.57842149  0.36273697     0.29010
H3047       H  0.29324990  0.56820708  0.39375440     0.19600
H3048       H  0.31319677  0.63321201  0.39572977     0.19610
C3049       C  0.34562933  0.53493198  0.59915099    -0.06230
C3050       C  0.36443444  0.53843574  0.60097038    -0.17350
C3051       C  0.37087498  0.55545587  0.60715327     0.10970
C3052       C  0.35823806  0.56981285  0.61130719    -0.06150
C3053       C  0.33936077  0.56608631  0.60977699    -0.17390
C3054       C  0.33294774  0.54886184  0.60408541     0.11000
S3055       S  0.39541761  0.55762437  0.60923796    -0.32350
S3056       S  0.30838267  0.54549285  0.60386725    -0.32360
H3057       H  0.30896005  0.52671022  0.60850479     0.29010
H3058       H  0.39434323  0.56288499  0.62778804     0.29010
H3059       H  0.37426219  0.52784156  0.59731742     0.19600
H3060       H  0.32941066  0.57666051  0.61310218     0.19610
C3061       C  0.15654485  0.40181660  0.46541357    -0.06230
C3062       C  0.13813409  0.39689051  0.46268877    -0.17350
C3063       C  0.13208325  0.38994133  0.44582399     0.10970
C3064       C  0.14445767  0.38873802  0.43071329    -0.06150
C3065       C  0.16302132  0.39300990  0.43364272    -0.17390
C3066       C  0.16927530  0.39914296  0.45082834     0.11000
S3067       S  0.10855286  0.38228220  0.44493075    -0.32350
S3068       S  0.19367788  0.40250120  0.45409953    -0.32360
H3069       H  0.19913622  0.39949185  0.43575725     0.29010
H3070       H  0.11282300  0.36583654  0.43567011     0.29010
H3071       H  0.12830357  0.39846625  0.47381845     0.19600
H3072       H  0.17268928  0.39160329  0.42237500     0.19610
C3073       C  0.22243297  0.47370630  0.50020127    -0.06230
C3074       C  0.20793228  0.47523754  0.51282343    -0.17350
C3075       C  0.19323943  0.46286849  0.51259860     0.10970
C3076       C  0.19348185  0.44801220  0.50000417    -0.06150
C3077       C  0.20808463  0.44668111  0.48732714    -0.17390
C3078       C  0.22241007  0.45940745  0.48717647     0.11000
S3079       S  0.17428345  0.46758794  0.52796484    -0.32350
S3080       S  0.24024459  0.45656904  0.47007713    -0.32360
H3081       H  0.25457556  0.46416262  0.48049465     0.29010
H3082       H  0.16066408  0.46051657  0.51627082     0.29010
H3083       H  0.20777031  0.48655423  0.52251056     0.19600
H3084       H  0.20862817  0.43534953  0.47769454     0.19610
C3085       C  0.27803537  0.50100130  0.52863272    -0.06230
C3086       C  0.29213314  0.48797752  0.52733055    -0.17350
C3087       C  0.30666483  0.48788158  0.53984077     0.10970
C3088       C  0.30660701  0.50051468  0.55467604    -0.06150
C3089       C  0.29236183  0.51354262  0.55583641    -0.17390
C3090       C  0.27826761  0.51406884  0.54289384     0.11000
S3091       S  0.32527801  0.47214763  0.53522277    -0.32350
S3092       S  0.26107477  0.53178692  0.54530800    -0.32360
H3093       H  0.24650387  0.52182502  0.53754846     0.29010
H3094       H  0.33915650  0.48378386  0.54190329     0.29010
H3095       H  0.29216733  0.47826694  0.51602922     0.19600
H3096       H  0.29198919  0.52325469  0.56711605     0.19610
C3097       C  0.25160984  0.52883105  0.47217719    -0.06230
C3098       C  0.24811428  0.54711391  0.47713064    -0.17350
C3099       C  0.24800782  0.56106681  0.46389276     0.10970
C3100       C  0.25128925  0.55658290  0.44528525    -0.06150
C3101       C  0.25486598  0.53832591  0.44033342    -0.17390
C3102       C  0.25517281  0.52440115  0.45359388     0.11000
S3103       S  0.24357594  0.58421918  0.47159204    -0.32350
S3104       S  0.26036132  0.50138160  0.44596630    -0.32360
H3105       H  0.26908169  0.49564690  0.46223385     0.29010
H3106       H  0.25417572  0.59314116  0.45803681     0.29010
H3107       H  0.24539750  0.55050404  0.49141184     0.19600
H3108       H  0.25748395  0.53493722  0.42603473     0.19610
C3109       C  0.07270724  0.35596912  0.60902033    -0.06230
C3110       C  0.05836025  0.35507680  0.62189561    -0.17350
C3111       C  0.04060820  0.34974291  0.61669901     0.10970
C3112       C  0.03669672  0.34619805  0.59792594    -0.06150
C3113       C  0.05117862  0.34767331  0.58503495    -0.17390
C3114       C  0.06904818  0.35225179  0.59037324     0.11000
S3115       S  0.02421389  0.34632323  0.63496607    -0.32350
S3116       S  0.08657949  0.35297058  0.57272839    -0.32360
H3117       H  0.09709830  0.36710981  0.58056686     0.29010
H3118       H  0.01684763  0.33018024  0.62735293     0.29010
H3119       H  0.06117820  0.35792064  0.63625521     0.19600
H3120       H  0.04859385  0.34519633  0.57057124     0.19610
C3121       C  0.14219777  0.39350221  0.57044080    -0.06230
C3122       C  0.15366136  0.38168397  0.56021745    -0.17350
C3123       C  0.16013740  0.38654222  0.54268772     0.10970
C3124       C  0.15482325  0.40349195  0.53491959    -0.06150
C3125       C  0.14313382  0.41517184  0.54490248    -0.17390
C3126       C  0.13655285  0.41027689  0.56237365     0.11000
S3127       S  0.17556627  0.37080700  0.53127819    -0.32350
S3128       S  0.12039977  0.42564450  0.57316739    -0.32360
H3129       H  0.10876018  0.41150153  0.57950450     0.29010
H3130       H  0.18577017  0.38416907  0.52166552     0.29010
H3131       H  0.15810018  0.36873967  0.56614551     0.19600
H3132       H  0.13894712  0.42817677  0.53890592     0.19610
C3133       C  0.38973094  0.32087402  0.60638538    -0.06230
C3134       C  0.39584935  0.30843887  0.61999686    -0.17350
C3135       C  0.40229182  0.29085451  0.61552129     0.10970
C3136       C  0.40230608  0.28513825  0.59698734    -0.06150
C3137       C  0.39579235  0.29729026  0.58342744    -0.17390
C3138       C  0.38941482  0.31489118  0.58785477     0.11000
S3139       S  0.41127228  0.27689283  0.63397128    -0.32350
S3140       S  0.38095292  0.32874406  0.56914062    -0.32360
H3141       H  0.36449401  0.33324570  0.57831191     0.29010
H3142       H  0.42548418  0.26890487  0.62354775     0.29010
H3143       H  0.39627794  0.31262938  0.63429064     0.19600
H3144       H  0.39563188  0.29296478  0.56915541     0.19610
C3145       C  0.43080843  0.39165813  0.64334458    -0.06230
C3146       C  0.43544929  0.39019803  0.66204792    -0.17350
C3147       C  0.45300520  0.39476443  0.66833741     0.10970
C3148       C  0.46636257  0.40146456  0.65580274    -0.06150
C3149       C  0.46204047  0.40243729  0.63707764    -0.17390
C3150       C  0.44452630  0.39777329  0.63071496     0.11000
S3151       S  0.45759193  0.39133707  0.69250687    -0.32350
S3152       S  0.44065706  0.40082753  0.60643257    -0.32360
H3153       H  0.42542859  0.41231690  0.60928351     0.29010
H3154       H  0.47640675  0.38746740  0.69031522     0.29010
H3155       H  0.42539949  0.38520845  0.67191071     0.19600
H3156       H  0.47216255  0.40766973  0.62740413     0.19610
C3157       C  0.35849412  0.43009797  0.60761158    -0.06230
C3158       C  0.34090802  0.43587835  0.61306980    -0.17350
C3159       C  0.33445900  0.45348869  0.60872872     0.10970
C3160       C  0.34585926  0.46571269  0.59875863    -0.06150
C3161       C  0.36355713  0.46005594  0.59356381    -0.17390
C3162       C  0.37001776  0.44245633  0.59798183     0.11000
S3163       S  0.31153534  0.45945977  0.61612217    -0.32350
S3164       S  0.39323208  0.43676898  0.59154254    -0.32360
H3165       H  0.39683723  0.42685962  0.60776196     0.29010
H3166       H  0.31465890  0.47847302  0.61760946     0.29010
H3167       H  0.33207645  0.42654038  0.62068990     0.19600
H3168       H  0.37232112  0.46935997  0.58582864     0.19610
C3169       C  0.34473423  0.14940671  0.71686367    -0.06230
C3170       C  0.33244582  0.13951680  0.70581922    -0.17350
C3171       C  0.33743287  0.13370508  0.68808741     0.10970
C3172       C  0.35497784  0.13830118  0.68093085    -0.06150
C3173       C  0.36731482  0.14790614  0.69224628    -0.17390
C3174       C  0.36234570  0.15368298  0.70988949     0.11000
S3175       S  0.32100111  0.12007788  0.67566016    -0.32350
S3176       S  0.37876617  0.16741382  0.72234582    -0.32360
H3177       H  0.36582350  0.17968567  0.72982223     0.29010
H3178       H  0.33410009  0.10724149  0.66948457     0.29010
H3179       H  0.31886692  0.13628780  0.71108442     0.19600
H3180       H  0.38079791  0.15163291  0.68706721     0.19610
C3181       C  0.34916079  0.15554147  0.78588199    -0.06230
C3182       C  0.36796505  0.15230758  0.78872942    -0.17350
C3183       C  0.37467173  0.14783236  0.80627071     0.10970
C3184       C  0.36238336  0.14686707  0.82134281    -0.06150
C3185       C  0.34365019  0.14988078  0.81849577    -0.17390
C3186       C  0.33684437  0.15368189  0.80095884     0.11000
S3187       S  0.39894448  0.14339202  0.80850694    -0.32350
S3188       S  0.31217457  0.15479507  0.79865511    -0.32360
H3189       H  0.31167862  0.14728797  0.78083580     0.29010
H3190       H  0.40037546  0.14818713  0.82717625     0.29010
H3191       H  0.37750943  0.15354935  0.77730246     0.19600
H3192       H  0.33410973  0.14837856  0.82991151     0.19610
C3193       C  0.21672079  0.34651908  0.65290923    -0.06230
C3194       C  0.20774464  0.33561464  0.63981132    -0.17350
C3195       C  0.19012098  0.34013790  0.63351353     0.10970
C3196       C  0.18103619  0.35572375  0.64075211    -0.06150
C3197       C  0.19011156  0.36656881  0.65386954    -0.17390
C3198       C  0.20773619  0.36215238  0.66003608     0.11000
S3199       S  0.18027986  0.32582665  0.61592029    -0.32350
S3200       S  0.21736359  0.37629656  0.67795105    -0.32360
H3201       H  0.23582736  0.37437475  0.67273593     0.29010
H3202       H  0.17268730  0.34052953  0.60587621     0.29010
H3203       H  0.21453019  0.32345954  0.63448812     0.19600
H3204       H  0.18326007  0.37846963  0.65966483     0.19610
C3205       C  0.28593539  0.34832162  0.65551495    -0.06230
C3206       C  0.29778075  0.35592868  0.66867896    -0.17350
C3207       C  0.31534669  0.36223639  0.66389947     0.10970
C3208       C  0.32156958  0.36066968  0.64547358    -0.06150
C3209       C  0.30949871  0.35331295  0.63227901    -0.17390
C3210       C  0.29197822  0.34695588  0.63709112     0.11000
S3211       S  0.32875886  0.37250708  0.68192689    -0.32350
S3212       S  0.27850693  0.33630964  0.61925754    -0.32360
H3213       H  0.27069234  0.32269801  0.63064098     0.29010
H3214       H  0.33364591  0.38797576  0.67129354     0.29010
H3215       H  0.29320979  0.35710545  0.68285336     0.19600
H3216       H  0.31393774  0.35187365  0.61809705     0.19610
C3217       C  0.25110926  0.27994595  0.72446293    -0.06230
C3218       C  0.24633155  0.27499683  0.70647946    -0.17350
C3219       C  0.24619616  0.28799889  0.69233432     0.10970
C3220       C  0.25070329  0.30641495  0.69633415    -0.06150
C3221       C  0.25543377  0.31139090  0.71434414    -0.17390
C3222       C  0.25576238  0.29831180  0.72847067     0.11000
S3223       S  0.24034976  0.28019990  0.66953010    -0.32350
S3224       S  0.26216438  0.30589159  0.75118565    -0.32360
H3225       H  0.26952260  0.28908798  0.75726324     0.29010
H3226       H  0.25159316  0.29270168  0.65990859     0.29010
H3227       H  0.24279810  0.26084389  0.70344201     0.19600
H3228       H  0.25894576  0.32554690  0.71737015     0.19610
C3229       C  0.27947869  0.22342716  0.75102324    -0.06230
C3230       C  0.28932406  0.21977098  0.73470459    -0.17350
C3231       C  0.30423135  0.20768219  0.73445279     0.10970
C3232       C  0.30784751  0.19659487  0.75010546    -0.06150
C3233       C  0.29770870  0.19997574  0.76629318    -0.17390
C3234       C  0.28482051  0.21411383  0.76731043     0.11000
S3235       S  0.31889222  0.20869061  0.71436130    -0.32350
S3236       S  0.27742279  0.22053040  0.79016855    -0.32360
H3237       H  0.27647282  0.23947281  0.78627341     0.29010
H3238       H  0.33524500  0.20526007  0.72404741     0.29010
H3239       H  0.28590941  0.22682298  0.72203584     0.19600
H3240       H  0.30016172  0.19199373  0.77863024     0.19610
C3241       C  0.19593951  0.24814252  0.80676489    -0.06230
C3242       C  0.19357660  0.23640404  0.79157886    -0.17350
C3243       C  0.20610170  0.23627619  0.77694579     0.10970
C3244       C  0.22117812  0.24839587  0.77726219    -0.06150
C3245       C  0.22377547  0.25991292  0.79244663    -0.17390
C3246       C  0.21166276  0.25959387  0.80738653     0.11000
S3247       S  0.20203288  0.22043451  0.75833506    -0.32350
S3248       S  0.21778911  0.27327931  0.82712089    -0.32360
H3249       H  0.21004135  0.26126651  0.84023246     0.29010
H3250       H  0.21064538  0.23088206  0.74447056     0.29010
H3251       H  0.18163795  0.22753889  0.79087521     0.19600
H3252       H  0.23573420  0.26879076  0.79291703     0.19610
C3253       C  0.40443136  0.96554861  0.65336427    -0.06230
C3254       C  0.38909674  0.95783473  0.66223765    -0.17350
C3255       C  0.38326974  0.93989663  0.65830227     0.10970
C3256       C  0.39313366  0.92927829  0.64530292    -0.06150
C3257       C  0.40844548  0.93712454  0.63641703    -0.17390
C3258       C  0.41422954  0.95502168  0.64034478     0.11000
S3259       S  0.36303729  0.93165798  0.67009924    -0.32350
S3260       S  0.43459857  0.96335878  0.62879134    -0.32360
H3261       H  0.42992679  0.98209470  0.62920998     0.29010
H3262       H  0.35625986  0.92141299  0.65526685     0.29010
H3263       H  0.38173859  0.96580116  0.67248177     0.19600
H3264       H  0.41612493  0.92914920  0.62641716     0.19610
C3265       C  0.40463797  0.03491451  0.65222361    -0.06230
C3266       C  0.41783350  0.04672096  0.64442140    -0.17350
C3267       C  0.41314759  0.06425734  0.63795132     0.10970
C3268       C  0.39480592  0.07052850  0.63964086    -0.06150
C3269       C  0.38155663  0.05844192  0.64711060    -0.17390
C3270       C  0.38626593  0.04090592  0.65354660     0.11000
S3271       S  0.43118055  0.07758004  0.62734544    -0.32350
S3272       S  0.36837261  0.02730476  0.66415361    -0.32360
H3273       H  0.37961696  0.01908714  0.67754785     0.29010
H3274       H  0.42043876  0.08270412  0.61210250     0.29010
H3275       H  0.43196572  0.04214984  0.64325992     0.19600
H3276       H  0.36742418  0.06288770  0.64859832     0.19610
C3277       C  0.60285530  0.90760533  0.71667286    -0.06230
C3278       C  0.60057204  0.88916697  0.71164447    -0.17350
C3279       C  0.60464492  0.88304998  0.69387154     0.10970
C3280       C  0.61184019  0.89550410  0.68058127    -0.06150
C3281       C  0.61448898  0.91393993  0.68574924    -0.17390
C3282       C  0.61021332  0.92007303  0.70358374     0.11000
S3283       S  0.59900935  0.85943003  0.68896011    -0.32350
S3284       S  0.61490467  0.94382443  0.70886832    -0.32360
H3285       H  0.61764325  0.94107806  0.72783397     0.29010
H3286       H  0.58959564  0.86370171  0.67260441     0.29010
H3287       H  0.59454827  0.87957530  0.72140411     0.19600
H3288       H  0.62018312  0.92363621  0.67591126     0.19610
C3289       C  0.55433639  0.94229675  0.75127490    -0.06230
C3290       C  0.54999097  0.95181254  0.76760662    -0.17350
C3291       C  0.53509825  0.96388787  0.76862921     0.10970
C3292       C  0.52604211  0.96935005  0.75225918    -0.06150
C3293       C  0.53039309  0.95984692  0.73592990    -0.17390
C3294       C  0.54312993  0.94549800  0.73566524     0.11000
S3295       S  0.52744769  0.96997874  0.79149517    -0.32350
S3296       S  0.54279487  0.93096073  0.71555800    -0.32360
H3297       H  0.54685713  0.91469109  0.72525226     0.29010
H3298       H  0.50882291  0.97170473  0.78667584     0.29010
H3299       H  0.55782813  0.94957036  0.78002356     0.19600
H3300       H  0.52358493  0.96319432  0.72314471     0.19610
C3301       C  0.47431304  0.00130252  0.72069320    -0.06230
C3302       C  0.45926764  0.98952358  0.72315591    -0.17350
C3303       C  0.44476236  0.98936268  0.71066147     0.10970
C3304       C  0.44562965  0.00071974  0.69481702    -0.06150
C3305       C  0.46074301  0.01254359  0.69244058    -0.17390
C3306       C  0.47501843  0.01301234  0.70520472     0.11000
S3307       S  0.42521879  0.97516169  0.71641386    -0.32350
S3308       S  0.49383377  0.02857468  0.70074826    -0.32360
H3309       H  0.50748765  0.01767087  0.70897635     0.29010
H3310       H  0.41203788  0.98716871  0.70895369     0.29010
H3311       H  0.45855080  0.98080752  0.73527673     0.19600
H3312       H  0.46163208  0.02124961  0.68033206     0.19610
C3313       C  0.43070277  0.10535925  0.86054464    -0.06230
C3314       C  0.44392138  0.11883997  0.85617520    -0.17350
C3315       C  0.46157224  0.11419555  0.85015415     0.10970
C3316       C  0.46687366  0.09550559  0.84937094    -0.06150
C3317       C  0.45392202  0.08199432  0.85435149    -0.17390
C3318       C  0.43589221  0.08662153  0.85937281     0.11000
S3319       S  0.47601956  0.13285381  0.84238508    -0.32350
S3320       S  0.42020600  0.06787890  0.86333558    -0.32360
H3321       H  0.40770873  0.07408497  0.84994498     0.29010
H3322       H  0.48291230  0.12346689  0.82692214     0.29010
H3323       H  0.44031451  0.13328491  0.85670753     0.19600
H3324       H  0.45770340  0.06759450  0.85374452     0.19610
C3325       C  0.50294904  0.05752683  0.80422158    -0.06230
C3326       C  0.48727392  0.05458676  0.79336064    -0.17350
C3327       C  0.48648649  0.04036687  0.78052117     0.10970
C3328       C  0.50280574  0.03082099  0.77551017    -0.06150
C3329       C  0.51882209  0.03460275  0.78564084    -0.17390
C3330       C  0.51855197  0.04629809  0.80086694     0.11000
S3331       S  0.46367397  0.03389871  0.77329602    -0.32350
S3332       S  0.53767406  0.04409457  0.81648590    -0.32360
H3333       H  0.52696656  0.04628472  0.83250877     0.29010
H3334       H  0.46711147  0.01487300  0.77419402     0.29010
H3335       H  0.47499694  0.06270172  0.79546110     0.19600
H3336       H  0.53160233  0.02769071  0.78252805     0.19610
C3337       C  0.17961736  0.39326911  0.10925808    -0.06230
C3338       C  0.18658897  0.38651335  0.09254783    -0.17350
C3339       C  0.20418202  0.39124868  0.08634382     0.10970
C3340       C  0.21523199  0.40296372  0.09709029    -0.06150
C3341       C  0.20841514  0.40956902  0.11391951    -0.17390
C3342       C  0.19079395  0.40475678  0.12017403     0.11000
S3343       S  0.21154604  0.38227881  0.06438193    -0.32350
S3344       S  0.18359481  0.41327358  0.14233853    -0.32360
H3345       H  0.17390080  0.39732745  0.14751194     0.29010
H3346       H  0.23042482  0.38188911  0.06833592     0.29010
H3347       H  0.17815095  0.37762124  0.08412289     0.19600
H3348       H  0.21682527  0.41866492  0.12214776     0.19610
C3349       C  0.07106151  0.63957184  0.39513781    -0.06230
C3350       C  0.05845467  0.64548275  0.38168710    -0.17350
C3351       C  0.04106641  0.65223586  0.38642988     0.10970
C3352       C  0.03560860  0.65255199  0.40511280    -0.06150
C3353       C  0.04797536  0.64620317  0.41852500    -0.17390
C3354       C  0.06548748  0.63976973  0.41383032     0.11000
S3355       S  0.02718855  0.66142547  0.36805541    -0.32350
S3356       S  0.07978764  0.63193172  0.43243922    -0.32360
H3357       H  0.08454280  0.61539452  0.42360567     0.29010
H3358       H  0.02009747  0.67619490  0.37832917     0.29010
H3359       H  0.06242575  0.64563573  0.36729215     0.19600
H3360       H  0.04392063  0.64623305  0.43290465     0.19610
C3361       C  0.18056648  0.61198412  0.39537972    -0.06230
C3362       C  0.19291177  0.60543816  0.38190975    -0.17350
C3363       C  0.21033730  0.59878413  0.38651098     0.10970
C3364       C  0.21610769  0.59911948  0.40503551    -0.06150
C3365       C  0.20401296  0.60601953  0.41849020    -0.17390
C3366       C  0.18647613  0.61251301  0.41391923     0.11000
S3367       S  0.22393718  0.58892384  0.36821636    -0.32350
S3368       S  0.17261275  0.62150548  0.43239646    -0.32360
H3369       H  0.16759509  0.63745359  0.42261591     0.29010
H3370       H  0.23123678  0.57454607  0.37891324     0.29010
H3371       H  0.18871904  0.60474332  0.36763195     0.19600
H3372       H  0.20833089  0.60643320  0.43275045     0.19610
C3373       C  0.13936454  0.67949818  0.35465101    -0.06230
C3374       C  0.12649574  0.69388049  0.35436171    -0.17350
C3375       C  0.13157516  0.71171142  0.34883345     0.10970
C3376       C  0.15011573  0.71540261  0.34417939    -0.06150
C3377       C  0.16293185  0.70093870  0.34499296    -0.17390
C3378       C  0.15779637  0.68315893  0.35005361     0.11000
S3379       S  0.11367294  0.72876380  0.34732729    -0.32350
S3380       S  0.17553567  0.66583617  0.35078724    -0.32360
H3381       H  0.16871348  0.65658895  0.36640141     0.29010
H3382       H  0.12133639  0.73828963  0.33227226     0.29010
H3383       H  0.11233191  0.69110326  0.35809103     0.19600
H3384       H  0.17724352  0.70356320  0.34194022     0.19610
C3385       C  0.82158969  0.36089838  0.14630229    -0.06230
C3386       C  0.80728814  0.37378714  0.14721192    -0.17350
C3387       C  0.78946728  0.36853827  0.15249452     0.10970
C3388       C  0.78558494  0.34976699  0.15606463    -0.06150
C3389       C  0.80000523  0.33691177  0.15463534    -0.17390
C3390       C  0.81785882  0.34226011  0.14999953     0.11000
S3391       S  0.77279923  0.38659802  0.15549639    -0.32350
S3392       S  0.83526151  0.32460587  0.14897866    -0.32360
H3393       H  0.84518008  0.33221904  0.13416891     0.29010
H3394       H  0.76453585  0.37866411  0.17114946     0.29010
H3395       H  0.81015441  0.38813165  0.14428357     0.19600
H3396       H  0.79734438  0.32244456  0.15709423     0.19610
C3397       C  0.11265659  0.56982023  0.35701001    -0.06230
C3398       C  0.11413148  0.56506994  0.33830237    -0.17350
C3399       C  0.10941118  0.54747671  0.33203428     0.10970
C3400       C  0.10220875  0.53434218  0.34455406    -0.06150
C3401       C  0.10124772  0.53884761  0.36326688    -0.17390
C3402       C  0.10665494  0.55611221  0.36967666     0.11000
S3403       S  0.11343268  0.54256487  0.30801806    -0.32350
S3404       S  0.10498350  0.55956339  0.39417638    -0.32360
H3405       H  0.12379107  0.56370551  0.39590292     0.29010
H3406       H  0.11641672  0.52360679  0.31047442     0.29010
H3407       H  0.11917675  0.57507945  0.32842572     0.19600
H3408       H  0.09580830  0.52891380  0.37302374     0.19610
C3409       C  0.09480691  0.46563734  0.35036078    -0.06230
C3410       C  0.08183143  0.45393802  0.35871874    -0.17350
C3411       C  0.08658639  0.43619461  0.36467013     0.10970
C3412       C  0.10475438  0.42972030  0.36203587    -0.06150
C3413       C  0.11773264  0.44162672  0.35393080    -0.17390
C3414       C  0.11295264  0.45921140  0.34782710     0.11000
S3415       S  0.06893015  0.42283053  0.37584051    -0.32350
S3416       S  0.13041507  0.47215977  0.33574877    -0.32360
H3417       H  0.11852855  0.47926694  0.32226458     0.29010
H3418       H  0.08034760  0.41708862  0.39034975     0.29010
H3419       H  0.06785988  0.45871237  0.36069361     0.19600
H3420       H  0.13168210  0.43695620  0.35158489     0.19610
C3421       C  0.03526224  0.40548933  0.15214464    -0.06230
C3422       C  0.04702726  0.41848757  0.14395112    -0.17350
C3423       C  0.06456045  0.41363616  0.13762028     0.10970
C3424       C  0.07082172  0.39533618  0.13980306    -0.06150
C3425       C  0.05881797  0.38230092  0.14775053    -0.17390
C3426       C  0.04132353  0.38718092  0.15409919     0.11000
S3427       S  0.07789493  0.43137849  0.12653869    -0.32350
S3428       S  0.02788925  0.36962352  0.16546950    -0.32360
H3429       H  0.02006811  0.38131882  0.17874698     0.29010
H3430       H  0.08287385  0.42025972  0.11149385     0.29010
H3431       H  0.04243079  0.43258371  0.14237483     0.19600
H3432       H  0.06329631  0.36821621  0.14966791     0.19610
C3433       C  0.96586761  0.40339101  0.15507265    -0.06230
C3434       C  0.95408591  0.39597498  0.16854705    -0.17350
C3435       C  0.93656491  0.38942496  0.16407643     0.10970
C3436       C  0.93030636  0.39064924  0.14568328    -0.06150
C3437       C  0.94234317  0.39774464  0.13217933    -0.17390
C3438       C  0.95984284  0.40425896  0.13666024     0.11000
S3439       S  0.92325696  0.37925019  0.18241326    -0.32350
S3440       S  0.97333443  0.41443018  0.11839625    -0.32360
H3441       H  0.98118590  0.42831125  0.12926671     0.29010
H3442       H  0.91801864  0.36386779  0.17195162     0.29010
H3443       H  0.95867395  0.39514095  0.18270702     0.19600
H3444       H  0.93787715  0.39888544  0.11800860     0.19610
C3445       C  0.00289525  0.47493052  0.22025355    -0.06230
C3446       C  0.00576945  0.45658136  0.22558751    -0.17350
C3447       C  0.00488382  0.44232990  0.21282592     0.10970
C3448       C  0.00107136  0.44648125  0.19427559    -0.06150
C3449       C  0.99846768  0.46476898  0.18880059    -0.17390
C3450       C  0.99960756  0.47908280  0.20152547     0.11000
S3451       S  0.00876589  0.41921976  0.22108038    -0.32350
S3452       S  0.99751257  0.50225637  0.19284981    -0.32360
H3453       H  0.00893509  0.51034984  0.20612889     0.29010
H3454       H  0.99770442  0.41022695  0.20811135     0.29010
H3455       H  0.00821861  0.45326621  0.23993114     0.19600
H3456       H  0.99596599  0.46792136  0.17443025     0.19610
C3457       C  0.02916783  0.50183035  0.27772700    -0.06230
C3458       C  0.03938015  0.48573121  0.28104185    -0.17350
C3459       C  0.05398102  0.48545706  0.29342180     0.10970
C3460       C  0.05683853  0.50066603  0.30524716    -0.06150
C3461       C  0.04624742  0.51659781  0.30233385    -0.17390
C3462       C  0.03366915  0.51781214  0.28790865     0.11000
S3463       S  0.06934150  0.46602813  0.29173761    -0.32350
S3464       S  0.02564061  0.54062049  0.28226567    -0.32360
H3465       H  0.02523998  0.53759135  0.26314492     0.29010
H3466       H  0.08534327  0.47626094  0.29529187     0.29010
H3467       H  0.03655451  0.47328215  0.27343639     0.19600
H3468       H  0.04818497  0.52860999  0.31086352     0.19610
C3469       C  0.90122098  0.59523658  0.28452803    -0.06230
C3470       C  0.89891286  0.61403149  0.28799232    -0.17350
C3471       C  0.89291132  0.62033766  0.30519551     0.10970
C3472       C  0.88991124  0.60763464  0.31983238    -0.06150
C3473       C  0.89166666  0.58878347  0.31610286    -0.17390
C3474       C  0.89678385  0.58246429  0.29864347     0.11000
S3475       S  0.88907024  0.64472749  0.30715625    -0.32350
S3476       S  0.89681366  0.55788433  0.29523793    -0.32360
H3477       H  0.89179955  0.55862158  0.27656661     0.29010
H3478       H  0.87147322  0.64260704  0.31500067     0.29010
H3479       H  0.90194673  0.62394304  0.27722745     0.19600
H3480       H  0.88893576  0.57877726  0.32685349     0.19610
C3481       C  0.94515982  0.55527190  0.25058565    -0.06230
C3482       C  0.94313670  0.54074142  0.26330050    -0.17350
C3483       C  0.95578000  0.52631499  0.26404685     0.10970
C3484       C  0.97061215  0.52615218  0.25156431    -0.06150
C3485       C  0.97271395  0.54055926  0.23888163    -0.17390
C3486       C  0.96049370  0.55531681  0.23854517     0.11000
S3487       S  0.95216751  0.50858971  0.28110610    -0.32350
S3488       S  0.96605784  0.57415612  0.22328548    -0.32360
H3489       H  0.95916663  0.58796756  0.23493725     0.29010
H3490       H  0.96078747  0.49433556  0.27131615     0.29010
H3491       H  0.93143559  0.54044474  0.27256687     0.19600
H3492       H  0.98443326  0.54062914  0.22960815     0.19610
C3493       C  0.09917333  0.34473692  0.03439971    -0.06230
C3494       C  0.09995684  0.36354908  0.03832686    -0.17350
C3495       C  0.10484903  0.36988167  0.05582597     0.10970
C3496       C  0.10959576  0.35711477  0.06991486    -0.06150
C3497       C  0.10928355  0.33826476  0.06569260    -0.17390
C3498       C  0.10430879  0.33198195  0.04820164     0.11000
S3499       S  0.10392534  0.39440047  0.05915727    -0.32350
S3500       S  0.10513451  0.30749032  0.04433037    -0.32360
H3501       H  0.10941807  0.30865845  0.02546322     0.29010
H3502       H  0.09152411  0.39307819  0.07403066     0.29010
H3503       H  0.09588751  0.37340818  0.02788717     0.19600
H3504       H  0.11307272  0.32823765  0.07606526     0.19610
C3505       C  0.02807923  0.27752037  0.00039399    -0.06230
C3506       C  0.02601130  0.29246216  0.98839314    -0.17350
C3507       C  0.03841726  0.30713489  0.98855574     0.10970
C3508       C  0.05381693  0.30646294  0.00041937    -0.06150
C3509       C  0.05568924  0.29143495  0.01250867    -0.17390
C3510       C  0.04293849  0.27710102  0.01274677     0.11000
S3511       S  0.03306267  0.32664193  0.97414228    -0.32350
S3512       S  0.04632352  0.25880544  0.02924359    -0.32360
H3513       H  0.03797159  0.24478670  0.01896897     0.29010
H3514       H  0.04060756  0.33984639  0.98603126     0.29010
H3515       H  0.01426441  0.29297844  0.97927972     0.19600
H3516       H  0.06740183  0.29063284  0.02163484     0.19610
C3517       C  0.00083047  0.19446607  0.94536803    -0.06230
C3518       C  0.01124581  0.19183184  0.96141368    -0.17350
C3519       C  0.01138038  0.20493576  0.97544727     0.10970
C3520       C  0.00076235  0.22102914  0.97349726    -0.06150
C3521       C  0.99040242  0.22377249  0.95753435    -0.17390
C3522       C  0.99057417  0.21088065  0.94331300     0.11000
S3523       S  0.02569958  0.20045940  0.99520169    -0.32350
S3524       S  0.97827403  0.21676598  0.92260094    -0.32360
H3525       H  0.99078181  0.20832685  0.91047237     0.29010
H3526       H  0.01566109  0.21084275  0.00802360     0.29010
H3527       H  0.01922075  0.17936017  0.96311145     0.19600
H3528       H  0.98252944  0.23632789  0.95593725     0.19610
C3529       C  0.90135991  0.28551928  0.09639283    -0.06230
C3530       C  0.90531494  0.29123937  0.11432493    -0.17350
C3531       C  0.90080815  0.30897256  0.12032204     0.10970
C3532       C  0.89162453  0.32131213  0.10826906    -0.06150
C3533       C  0.88744980  0.31538468  0.09039438    -0.17390
C3534       C  0.89201360  0.29766376  0.08442644     0.11000
S3535       S  0.90832564  0.31522180  0.14307956    -0.32350
S3536       S  0.88515921  0.29127852  0.06149325    -0.32360
H3537       H  0.88345712  0.27233796  0.06504976     0.29010
H3538       H  0.91529089  0.33245484  0.13758970     0.29010
H3539       H  0.91273629  0.28209197  0.12346267     0.19600
H3540       H  0.88023682  0.32449903  0.08106702     0.19610
C3541       C  0.97246915  0.24982502  0.02865452    -0.06230
C3542       C  0.95790479  0.26216937  0.02648887    -0.17350
C3543       C  0.94325359  0.26244167  0.03894918     0.10970
C3544       C  0.94359855  0.25076205  0.05459552    -0.06150
C3545       C  0.95836885  0.23844679  0.05668914    -0.17390
C3546       C  0.97265516  0.23771248  0.04381618     0.11000
S3547       S  0.92406071  0.27695435  0.03316606    -0.32350
S3548       S  0.99057025  0.22093660  0.04741920    -0.32360
H3549       H  0.00477466  0.23091072  0.03884579     0.29010
H3550       H  0.91069110  0.26454342  0.03967520     0.29010
H3551       H  0.95761434  0.27116723  0.01456245     0.19600
H3552       H  0.95891516  0.22941678  0.06856836     0.19610
C3553       C  0.65445728  0.84710273  0.28495594    -0.06230
C3554       C  0.66739141  0.85592045  0.29617981    -0.17350
C3555       C  0.66259428  0.86272350  0.31358918     0.10970
C3556       C  0.64449851  0.86019720  0.32037106    -0.06150
C3557       C  0.63153707  0.85155232  0.30890746    -0.17390
C3558       C  0.63631598  0.84490703  0.29145572     0.11000
S3559       S  0.68003109  0.87506810  0.32598716    -0.32350
S3560       S  0.61880072  0.83316518  0.27849375    -0.32360
H3561       H  0.63063260  0.82056555  0.26983239     0.29010
H3562       H  0.66823547  0.88958660  0.33094193     0.29010
H3563       H  0.68132861  0.85775701  0.29118608     0.19600
H3564       H  0.61759717  0.84943338  0.31375692     0.19610
C3565       C  0.80797123  0.74990624  0.19561277    -0.06230
C3566       C  0.79810592  0.76613393  0.19930992    -0.17350
C3567       C  0.78543355  0.76715650  0.21375594     0.10970
C3568       C  0.78005647  0.75087883  0.22315461    -0.06150
C3569       C  0.78962138  0.73453579  0.21913986    -0.17390
C3570       C  0.80431164  0.73424092  0.20670641     0.11000
S3571       S  0.77841781  0.78999729  0.22045457    -0.32350
S3572       S  0.81872696  0.71404641  0.20732224    -0.32360
H3573       H  0.83518704  0.72364428  0.20391241     0.29010
H3574       H  0.77793595  0.78601182  0.23941572     0.29010
H3575       H  0.80066459  0.77848425  0.19135906     0.19600
H3576       H  0.78617533  0.72185703  0.22617652     0.19610
C3577       C  0.72220481  0.77702718  0.24960426    -0.06230
C3578       C  0.70735497  0.77552247  0.23753938    -0.17350
C3579       C  0.69313553  0.78844829  0.23776075     0.10970
C3580       C  0.69421603  0.80377148  0.24974867    -0.06150
C3581       C  0.70921251  0.80516815  0.26176871    -0.17390
C3582       C  0.72309871  0.79196490  0.26191010     0.11000
S3583       S  0.67360931  0.78384724  0.22326440    -0.32350
S3584       S  0.74157421  0.79500601  0.27812850    -0.32360
H3585       H  0.75537282  0.78688491  0.26729050     0.29010
H3586       H  0.66051038  0.79122554  0.23546872     0.29010
H3587       H  0.70652764  0.76382799  0.22835722     0.19600
H3588       H  0.71031830  0.81683771  0.27094506     0.19610
C3589       C  0.71657320  0.65305607  0.34714120    -0.06230
C3590       C  0.70812218  0.63893699  0.33711700    -0.17350
C3591       C  0.69040321  0.63273159  0.34163776     0.10970
C3592       C  0.68071054  0.64103500  0.35633519    -0.06150
C3593       C  0.68925718  0.65517571  0.36630007    -0.17390
C3594       C  0.70695767  0.66129353  0.36186214     0.11000
S3595       S  0.68123062  0.61387896  0.32852687    -0.32350
S3596       S  0.71604072  0.68030782  0.37490327    -0.32360
H3597       H  0.73468238  0.67571435  0.37309326     0.29010
H3598       H  0.67282364  0.60514823  0.34366613     0.29010
H3599       H  0.71538939  0.63273568  0.32565296     0.19600
H3600       H  0.68195599  0.66173661  0.37754099     0.19610
C3601       C  0.78571108  0.65417174  0.34867689    -0.06230
C3602       C  0.79474315  0.66488225  0.36189958    -0.17350
C3603       C  0.81241009  0.66032255  0.36804589     0.10970
C3604       C  0.82153288  0.64489050  0.36052318    -0.06150
C3605       C  0.81240166  0.63423525  0.34726312    -0.17390
C3606       C  0.79471187  0.63868313  0.34125346     0.11000
S3607       S  0.82224436  0.67441804  0.38581024    -0.32350
S3608       S  0.78505457  0.62478268  0.32315835    -0.32360
H3609       H  0.76654873  0.62697673  0.32808953     0.29010
H3610       H  0.82967394  0.65956098  0.39573444     0.29010
H3611       H  0.78795387  0.67693305  0.36745311     0.19600
H3612       H  0.81925620  0.62245889  0.34122399     0.19610
C3613       C  0.75147389  0.69655278  0.30751352    -0.06230
C3614       C  0.74367059  0.69284462  0.29031020    -0.17350
C3615       C  0.74351561  0.70611612  0.27640541     0.10970
C3616       C  0.75152675  0.72346421  0.27970156    -0.06150
C3617       C  0.75941623  0.72721370  0.29682858    -0.17390
C3618       C  0.75933656  0.71400054  0.31084660     0.11000
S3619       S  0.73338289  0.69979129  0.25466735    -0.32350
S3620       S  0.76906146  0.72039911  0.33271324    -0.32360
H3621       H  0.75712559  0.70964388  0.34355797     0.29010
H3622       H  0.72758510  0.71741175  0.24933857     0.29010
H3623       H  0.73773545  0.67943922  0.28767175     0.19600
H3624       H  0.76546847  0.74058989  0.29933688     0.19610
C3625       C  0.85912870  0.82117146  0.14503718    -0.06230
C3626       C  0.86712297  0.81359453  0.16093316    -0.17350
C3627       C  0.86352672  0.79535903  0.16628095     0.10970
C3628       C  0.85174827  0.78436717  0.15549479    -0.06150
C3629       C  0.84388578  0.79187124  0.13963004    -0.17390
C3630       C  0.84705700  0.81012229  0.13455663     0.11000
S3631       S  0.87436370  0.78688829  0.18690611    -0.32350
S3632       S  0.83383519  0.81885992  0.11558764    -0.32360
H3633       H  0.82962013  0.83548509  0.12454135     0.29010
H3634       H  0.87404622  0.76820098  0.18201249     0.29010
H3635       H  0.87645298  0.82181004  0.16908367     0.19600
H3636       H  0.83424425  0.78374532  0.13173076     0.19610
C3637       C  0.89028704  0.92930821  0.14603830    -0.06230
C3638       C  0.90911021  0.93279901  0.14758943    -0.17350
C3639       C  0.91563599  0.95044315  0.15139862     0.10970
C3640       C  0.90304706  0.96502607  0.15429049    -0.06150
C3641       C  0.88417070  0.96160596  0.15235387    -0.17390
C3642       C  0.87766451  0.94391936  0.14820218     0.11000
S3643       S  0.94024841  0.95354031  0.15163645    -0.32350
S3644       S  0.85321760  0.94102492  0.14538727    -0.32360
H3645       H  0.85251173  0.92223439  0.14985140     0.29010
H3646       H  0.94003854  0.97174628  0.14504975     0.29010
H3647       H  0.91885999  0.92177335  0.14521604     0.19600
H3648       H  0.87443405  0.97268518  0.15444317     0.19610
C3649       C  0.03369697  0.74669552  0.97822593    -0.06230
C3650       C  0.04380075  0.76291643  0.97474299    -0.17350
C3651       C  0.05827318  0.76342612  0.96207458     0.10970
C3652       C  0.06113694  0.74833197  0.95013471    -0.06150
C3653       C  0.05127623  0.73200974  0.95378693    -0.17390
C3654       C  0.03889457  0.73063254  0.96850548     0.11000
S3655       S  0.07329254  0.78314626  0.96325613    -0.32350
S3656       S  0.03195439  0.70767957  0.97500844    -0.32360
H3657       H  0.02966508  0.71178941  0.99379721     0.29010
H3658       H  0.08921098  0.77346818  0.95803443     0.29010
H3659       H  0.04072610  0.77548837  0.98204777     0.19600
H3660       H  0.05334948  0.71991219  0.94540195     0.19610
C3661       C  0.96518540  0.84719150  0.09802256    -0.06230
C3662       C  0.95991474  0.86534510  0.09406972    -0.17350
C3663       C  0.94227898  0.87175495  0.09857975     0.10970
C3664       C  0.92952957  0.85968001  0.10696853    -0.06150
C3665       C  0.93493437  0.84165465  0.11117010    -0.17390
C3666       C  0.95254174  0.83530068  0.10684532     0.11000
S3667       S  0.93706277  0.89551176  0.09375148    -0.32350
S3668       S  0.95798359  0.81186044  0.11294215    -0.32360
H3669       H  0.97687631  0.81475691  0.11564863     0.29010
H3670       H  0.92556770  0.89818325  0.10912401     0.29010
H3671       H  0.96953909  0.87451180  0.08726475     0.19600
H3672       H  0.92530959  0.83240940  0.11788260     0.19610
C3673       C  0.00032927  0.80578911  0.05673833    -0.06230
C3674       C  0.00665118  0.81039371  0.03908294    -0.17350
C3675       C  0.00652896  0.79747562  0.02490722     0.10970
C3676       C  0.00046228  0.77936521  0.02863930    -0.06150
C3677       C  0.99415028  0.77482338  0.04635441    -0.17390
C3678       C  0.99410182  0.78779161  0.06044765     0.11000
S3679       S  0.01351028  0.80521454  0.00230760    -0.32350
S3680       S  0.98629896  0.78040326  0.08288523    -0.32360
H3681       H  0.99777636  0.79208449  0.09307021     0.29010
H3682       H  0.00145832  0.79374173  0.99253738     0.29010
H3683       H  0.01126411  0.82429280  0.03623357     0.19600
H3684       H  0.98959697  0.76093007  0.04933095     0.19610
C3685       C  0.96941077  0.72690688  0.99794507    -0.06230
C3686       C  0.95996636  0.72290488  0.01447954    -0.17350
C3687       C  0.94554210  0.71024142  0.01518307     0.10970
C3688       C  0.94191292  0.69906804  0.99967768    -0.06150
C3689       C  0.95132906  0.70313595  0.98313220    -0.17390
C3690       C  0.96382705  0.71766526  0.98179518     0.11000
S3691       S  0.93159157  0.71043716  0.03578945    -0.32350
S3692       S  0.97057843  0.72452083  0.95884202    -0.32360
H3693       H  0.97292509  0.74320766  0.96321100     0.29010
H3694       H  0.91509227  0.70622584  0.02669944     0.29010
H3695       H  0.96353840  0.72989938  0.02710370     0.19600
H3696       H  0.94878854  0.69524185  0.97081626     0.19610
C3697       C  0.17926057  0.85493390  0.14201278    -0.06230
C3698       C  0.18865549  0.84113195  0.13233743    -0.17350
C3699       C  0.20686473  0.83659200  0.13666780     0.10970
C3700       C  0.21588782  0.84596914  0.15104242    -0.06150
C3701       C  0.20644019  0.85956659  0.16085406    -0.17390
C3702       C  0.18823094  0.86397338  0.15669308     0.11000
S3703       S  0.21768527  0.81846692  0.12365475    -0.32350
S3704       S  0.17687537  0.88040608  0.17142793    -0.32360
H3705       H  0.15961270  0.87171582  0.17095986     0.29010
H3706       H  0.23582080  0.82471029  0.12571451     0.29010
H3707       H  0.18192183  0.83412689  0.12107739     0.19600
H3708       H  0.21307112  0.86624939  0.17237951     0.19610
C3709       C  0.03444320  0.84515339  0.10042556    -0.06230
C3710       C  0.03929701  0.86373953  0.09927825    -0.17350
C3711       C  0.05702919  0.86969695  0.10366412     0.10970
C3712       C  0.07033524  0.85684459  0.10996510    -0.06150
C3713       C  0.06521913  0.83827442  0.11154179    -0.17390
C3714       C  0.04750903  0.83234090  0.10701242     0.11000
S3715       S  0.06183522  0.89369593  0.09970050    -0.32350
S3716       S  0.04239504  0.80825148  0.11021601    -0.32360
H3717       H  0.02356704  0.81068410  0.11389480     0.29010
H3718       H  0.07779576  0.89019059  0.08927308     0.29010
H3719       H  0.02946358  0.87358509  0.09395466     0.19600
H3720       H  0.07502795  0.82824963  0.11654493     0.19610
C3721       C  0.09940172  0.90462865  0.21532654    -0.06230
C3722       C  0.10169364  0.88581527  0.21191117    -0.17350
C3723       C  0.10804127  0.87946687  0.19486618     0.10970
C3724       C  0.11139472  0.89214572  0.18030314    -0.06150
C3725       C  0.10965590  0.91101743  0.18398187    -0.17390
C3726       C  0.10419340  0.91737821  0.20132232     0.11000
S3727       S  0.11180284  0.85505416  0.19301082    -0.32350
S3728       S  0.10422123  0.94195172  0.20474080    -0.32360
H3729       H  0.10886305  0.94117673  0.22350683     0.29010
H3730       H  0.12956727  0.85707128  0.18554084     0.29010
H3731       H  0.09838719  0.87591034  0.22260274     0.19600
H3732       H  0.11265711  0.92100517  0.17328562     0.19610
C3733       C  0.64232691  0.32099734  0.36053617    -0.06230
C3734       C  0.66092459  0.31745566  0.35680694    -0.17350
C3735       C  0.66689325  0.30013660  0.35076602     0.10970
C3736       C  0.65385048  0.28602467  0.34748697    -0.06150
C3737       C  0.63535592  0.28934144  0.35183529    -0.17390
C3738       C  0.62956723  0.30633590  0.35879959     0.11000
S3739       S  0.69133250  0.29607702  0.34842596    -0.32350
S3740       S  0.60586252  0.30794717  0.36585154    -0.32360
H3741       H  0.60995645  0.31650146  0.38271026     0.29010
H3742       H  0.69718658  0.31422102  0.35158905     0.29010
H3743       H  0.67088673  0.32832816  0.35867585     0.19600
H3744       H  0.62527116  0.27857833  0.34985433     0.19610
C3745       C  0.60728748  0.39327215  0.32079771    -0.06230
C3746       C  0.60504035  0.41219769  0.31810161    -0.17350
C3747       C  0.60163985  0.41946695  0.30058998     0.10970
C3748       C  0.59928686  0.40745256  0.28542727    -0.06150
C3749       C  0.60207597  0.38849082  0.28814378    -0.17390
C3750       C  0.60627763  0.38133242  0.30556327     0.11000
S3751       S  0.60170073  0.44420117  0.29845556    -0.32350
S3752       S  0.61010180  0.35688061  0.30744216    -0.32360
H3753       H  0.60457956  0.35505491  0.32592161     0.29010
H3754       H  0.60799585  0.44452953  0.28012088     0.29010
H3755       H  0.60673360  0.42147765  0.32963112     0.19600
H3756       H  0.60044225  0.37907823  0.27672738     0.19610
C3757       C  0.60429650  0.36266928  0.42970757    -0.06230
C3758       C  0.61783942  0.35914975  0.44306583    -0.17350
C3759       C  0.61336174  0.35299430  0.46078960     0.10970
C3760       C  0.59470578  0.35134071  0.46610666    -0.06150
C3761       C  0.58111065  0.35566966  0.45303953    -0.17390
C3762       C  0.58563224  0.36063520  0.43489626     0.11000
S3763       S  0.63226425  0.34605839  0.47521781    -0.32350
S3764       S  0.56690346  0.36310726  0.41898763    -0.32360
H3765       H  0.57426151  0.35027830  0.40648948     0.29010
H3766       H  0.62363014  0.32999886  0.48176728     0.29010
H3767       H  0.63225177  0.36038134  0.43948580     0.19600
H3768       H  0.56673331  0.35446264  0.45676758     0.19610
C3769       C  0.64836509  0.42973572  0.38905127    -0.06230
C3770       C  0.64672292  0.44477041  0.37700377    -0.17350
C3771       C  0.65228279  0.46250203  0.38222812     0.10970
C3772       C  0.65862584  0.46559760  0.40041184    -0.06150
C3773       C  0.66017295  0.45031632  0.41231086    -0.17390
C3774       C  0.65536687  0.43258220  0.40683235     0.11000
S3775       S  0.65181479  0.48007817  0.36467867    -0.32350
S3776       S  0.65764406  0.41432882  0.42355726    -0.32360
H3777       H  0.64141333  0.40506150  0.41874313     0.29010
H3778       H  0.66715457  0.48971013  0.37134567     0.29010
H3779       H  0.64141792  0.44259063  0.36325371     0.19600
H3780       H  0.66457045  0.45219519  0.42637453     0.19610
C3781       C  0.89002938  0.64592710  0.92928632    -0.06230
C3782       C  0.90811321  0.65184967  0.93165273    -0.17350
C3783       C  0.91493000  0.65587211  0.94911916     0.10970
C3784       C  0.90301900  0.65538821  0.96466490    -0.06150
C3785       C  0.88486094  0.64930645  0.96225642    -0.17390
C3786       C  0.87834263  0.64432912  0.94480231     0.11000
S3787       S  0.93933858  0.66000290  0.95063245    -0.32350
S3788       S  0.85499057  0.63618840  0.94319840    -0.32360
H3789       H  0.85194368  0.64218755  0.92504731     0.29010
H3790       H  0.94140527  0.65183944  0.96808632     0.29010
H3791       H  0.91735243  0.65225772  0.91990495     0.19600
H3792       H  0.87560008  0.64869570  0.97395953     0.19610
C3793       C  0.64092608  0.39281422  0.07046680    -0.06230
C3794       C  0.64028124  0.41162523  0.06605275    -0.17350
C3795       C  0.64510272  0.41806241  0.04851187     0.10970
C3796       C  0.65106745  0.40552103  0.03488031    -0.06150
C3797       C  0.65134348  0.38672027  0.03903592    -0.17390
C3798       C  0.64662613  0.38024254  0.05660336     0.11000
S3799       S  0.64300132  0.44245112  0.04434139    -0.32350
S3800       S  0.64919917  0.35588515  0.06040627    -0.32360
H3801       H  0.66031585  0.35817716  0.07604949     0.29010
H3802       H  0.63877821  0.44091655  0.02552926     0.29010
H3803       H  0.63577605  0.42147402  0.07628710     0.19600
H3804       H  0.65612371  0.37705044  0.02874334     0.19610
C3805       C  0.65262673  0.40504748  0.96529130    -0.06230
C3806       C  0.66624801  0.39922906  0.95283702    -0.17350
C3807       C  0.66183437  0.39251868  0.93536974     0.10970
C3808       C  0.64322404  0.39174002  0.92981162    -0.06150
C3809       C  0.62957586  0.39721199  0.94250535    -0.17390
C3810       C  0.63402990  0.40400349  0.95996064     0.11000
S3811       S  0.68069959  0.38496910  0.92117635    -0.32350
S3812       S  0.61537167  0.41203571  0.97424219    -0.32360
H3813       H  0.62516826  0.42667213  0.98214150     0.29010
H3814       H  0.67253772  0.36788665  0.91724282     0.29010
H3815       H  0.68056144  0.39973259  0.95686218     0.19600
H3816       H  0.61522675  0.39680140  0.93863230     0.19610
C3817       C  0.71536670  0.59873249  0.90541126    -0.06230
C3818       C  0.70234841  0.60328318  0.91903580    -0.17350
C3819       C  0.68435053  0.60831686  0.91455431     0.10970
C3820       C  0.67922364  0.60999942  0.89584719    -0.06150
C3821       C  0.69248859  0.60602354  0.88222312    -0.17390
C3822       C  0.71017209  0.59998810  0.88673070     0.11000
S3823       S  0.66860219  0.61150711  0.93345064    -0.32350
S3824       S  0.72483529  0.59295170  0.86795271    -0.32360
H3825       H  0.73232540  0.57770861  0.87722454     0.29010
H3826       H  0.65579885  0.59879722  0.92652903     0.29010
H3827       H  0.70606658  0.60229551  0.93344197     0.19600
H3828       H  0.68892131  0.60699284  0.86778560     0.19610
C3829       C  0.78494709  0.59599944  0.90172550    -0.06230
C3830       C  0.78912390  0.61475964  0.90046885    -0.17350
C3831       C  0.80631764  0.62082192  0.89422524     0.10970
C3832       C  0.82025009  0.60781941  0.88981356    -0.06150
C3833       C  0.81579100  0.58903772  0.89056283    -0.17390
C3834       C  0.79830904  0.58303929  0.89598164     0.11000
S3835       S  0.80922064  0.64534601  0.89217951    -0.32350
S3836       S  0.79385376  0.55866097  0.89469887    -0.32360
H3837       H  0.77509339  0.56043063  0.89047086     0.29010
H3838       H  0.81544389  0.64438112  0.87382682     0.29010
H3839       H  0.77894070  0.62483501  0.90457557     0.19600
H3840       H  0.82596708  0.57884023  0.88677465     0.19610
C3841       C  0.75107211  0.52817288  0.97210451    -0.06230
C3842       C  0.75325045  0.54657580  0.97751197    -0.17350
C3843       C  0.75300440  0.56083103  0.96461408     0.10970
C3844       C  0.75044347  0.55663324  0.94588017    -0.06150
C3845       C  0.74833260  0.53833109  0.94038165    -0.17390
C3846       C  0.74895591  0.52402268  0.95321141     0.11000
S3847       S  0.75625061  0.58396986  0.97291074    -0.32350
S3848       S  0.74797148  0.50086796  0.94441188    -0.32360
H3849       H  0.75987128  0.49328297  0.95761767     0.29010
H3850       H  0.74604964  0.59290010  0.95916347     0.29010
H3851       H  0.75490438  0.54989901  0.99194882     0.19600
H3852       H  0.74669689  0.53516119  0.92590287     0.19610
C3853       C  0.72211336  0.47329218  0.00132865    -0.06230
C3854       C  0.72315086  0.45916899  0.98832912    -0.17350
C3855       C  0.71020651  0.44500092  0.98811793     0.10970
C3856       C  0.69516986  0.44546648  0.00058905    -0.06150
C3857       C  0.69426095  0.45973465  0.01361935    -0.17390
C3858       C  0.70764373  0.47348120  0.01426100     0.11000
S3859       S  0.71453511  0.42629237  0.97242236    -0.32350
S3860       S  0.70548114  0.49076711  0.03191598    -0.32360
H3861       H  0.71417816  0.50505798  0.02217009     0.29010
H3862       H  0.70758262  0.41252148  0.98417147     0.29010
H3863       H  0.73453730  0.45886512  0.97865770     0.19600
H3864       H  0.68286768  0.46037865  0.02324604     0.19610
C3865       C  0.84608174  0.46509162  0.09818399    -0.06230
C3866       C  0.86493440  0.46248225  0.10151340    -0.17350
C3867       C  0.87198228  0.44511427  0.10607010     0.10970
C3868       C  0.86008433  0.42980001  0.10674763    -0.06150
C3869       C  0.84127192  0.43237528  0.10386991    -0.17390
C3870       C  0.83406162  0.44983688  0.10028094     0.11000
S3871       S  0.89622510  0.44342529  0.11089186    -0.32350
S3872       S  0.80933133  0.45176888  0.09996544    -0.32360
H3873       H  0.80880163  0.46989108  0.10666822     0.29010
H3874       H  0.89833299  0.42492107  0.10577554     0.29010
H3875       H  0.87434732  0.47395262  0.10014609     0.19600
H3876       H  0.83198099  0.42080420  0.10537227     0.19610
C3877       C  0.77944425  0.49975531  0.02726983    -0.06230
C3878       C  0.77775800  0.51179826  0.04214645    -0.17350
C3879       C  0.79082780  0.51206233  0.05613686     0.10970
C3880       C  0.80658410  0.50066868  0.05476475    -0.06150
C3881       C  0.80822142  0.48868586  0.03967372    -0.17390
C3882       C  0.79474948  0.48796361  0.02604824     0.11000
S3883       S  0.78573950  0.52628840  0.07582453    -0.32350
S3884       S  0.79773444  0.47147606  0.00774645    -0.32360
H3885       H  0.78785835  0.48105197  0.99419712     0.29010
H3886       H  0.79272680  0.51381791  0.08887678     0.29010
H3887       H  0.76578843  0.52061856  0.04317293     0.19600
H3888       H  0.82013592  0.47984107  0.03842052     0.19610
C3889       C  0.96551823  0.59442636  0.84822627    -0.06230
C3890       C  0.95314311  0.60236152  0.83573390    -0.17350
C3891       C  0.93520807  0.60683921  0.84094749     0.10970
C3892       C  0.92934477  0.60365421  0.85922570    -0.06150
C3893       C  0.94164560  0.59580175  0.87184274    -0.17390
C3894       C  0.95962108  0.59104077  0.86651794     0.11000
S3895       S  0.92031435  0.61624592  0.82347867    -0.32350
S3896       S  0.97415737  0.58046449  0.88356056    -0.32360
H3897       H  0.98363435  0.56893313  0.87126453     0.29010
H3898       H  0.90399138  0.60846871  0.83041130     0.29010
H3899       H  0.95742976  0.60480832  0.82162226     0.19600
H3900       H  0.93728147  0.59352372  0.88595101     0.19610
C3901       C  0.88787726  0.42915889  0.64682486    -0.06230
C3902       C  0.88913979  0.44303435  0.63339408    -0.17350
C3903       C  0.89448508  0.46099986  0.63770388     0.10970
C3904       C  0.89772290  0.46591943  0.65628152    -0.06150
C3905       C  0.89487917  0.45229417  0.66992994    -0.17390
C3906       C  0.89094703  0.43396677  0.66539049     0.11000
S3907       S  0.89914675  0.47631028  0.61872864    -0.32350
S3908       S  0.89179337  0.41728522  0.68373453    -0.32360
H3909       H  0.90368750  0.40541219  0.67410988     0.29010
H3910       H  0.88873827  0.46697702  0.60541419     0.29010
H3911       H  0.88687496  0.43956950  0.61910220     0.19600
H3912       H  0.89684781  0.45562304  0.68430867     0.19610
C3913       C  0.90818673  0.53545583  0.64947062    -0.06230
C3914       C  0.91044074  0.55060495  0.66133316    -0.17350
C3915       C  0.90604785  0.56852508  0.65598734     0.10970
C3916       C  0.89831528  0.57169091  0.63854227    -0.06150
C3917       C  0.89576476  0.55681120  0.62663170    -0.17390
C3918       C  0.90126906  0.53897861  0.63155564     0.11000
S3919       S  0.91011204  0.58662487  0.67236359    -0.32350
S3920       S  0.90056033  0.52204998  0.61366976    -0.32360
H3921       H  0.91688014  0.51335380  0.61926535     0.29010
H3922       H  0.89460492  0.59700724  0.66753885     0.29010
H3923       H  0.91535883  0.54855046  0.67520272     0.19600
H3924       H  0.89001642  0.55923483  0.61308308     0.19610
C3925       C  0.10484513  0.40644271  0.71633972    -0.06230
C3926       C  0.10082227  0.38834199  0.71118299    -0.17350
C3927       C  0.10431576  0.38204586  0.69333053     0.10970
C3928       C  0.11273980  0.39388828  0.68021348    -0.06150
C3929       C  0.11721557  0.41189389  0.68558062    -0.17390
C3930       C  0.11346011  0.41824210  0.70341658     0.11000
S3931       S  0.09625362  0.35924248  0.68799202    -0.32350
S3932       S  0.12014229  0.44148087  0.70886104    -0.32360
H3933       H  0.12208500  0.43854427  0.72789996     0.29010
H3934       H  0.08780450  0.36463218  0.67143074     0.29010
H3935       H  0.09375597  0.37935449  0.72081948     0.19600
H3936       H  0.12386883  0.42109407  0.67586746     0.19610
C3937       C  0.05833404  0.44599935  0.74783014    -0.06230
C3938       C  0.05500503  0.45668274  0.76360099    -0.17350
C3939       C  0.04102790  0.46979021  0.76412797     0.10970
C3940       C  0.03200316  0.47500070  0.74759687    -0.06150
C3941       C  0.03619917  0.46503174  0.73151151    -0.17390
C3942       C  0.04778742  0.44972348  0.73188062     0.11000
S3943       S  0.03426490  0.47728083  0.78683732    -0.32350
S3944       S  0.04645752  0.43454901  0.71230029    -0.32360
H3945       H  0.04874952  0.41832402  0.72264206     0.29010
H3946       H  0.01531189  0.47652473  0.78316385     0.29010
H3947       H  0.06270085  0.45428545  0.77609826     0.19600
H3948       H  0.02971380  0.46839820  0.71855974     0.19610
C3949       C  0.94465738  0.49890231  0.69459390    -0.06230
C3950       C  0.95415117  0.48257923  0.69893689    -0.17350
C3951       C  0.96588937  0.48147007  0.71411259     0.10970
C3952       C  0.97100675  0.49775977  0.72351594    -0.06150
C3953       C  0.96169489  0.51409176  0.71899122    -0.17390
C3954       C  0.94768363  0.51443217  0.70597364     0.11000
S3955       S  0.97185884  0.45858941  0.72172699    -0.32350
S3956       S  0.93316012  0.53449807  0.70640211    -0.32360
H3957       H  0.91685440  0.52471153  0.70297927     0.29010
H3958       H  0.97314856  0.46328624  0.74045728     0.29010
H3959       H  0.95198247  0.47021896  0.69099028     0.19600
H3960       H  0.96485144  0.52681801  0.72598248     0.19610
C3961       C  0.00216433  0.53032771  0.77548281    -0.06230
C3962       C  0.00803651  0.52575238  0.79331471    -0.17350
C3963       C  0.00747445  0.53856589  0.80756642     0.10970
C3964       C  0.00084160  0.55643696  0.80402249    -0.06150
C3965       C  0.99495520  0.56112079  0.78628947    -0.17390
C3966       C  0.99585857  0.54840637  0.77190602     0.11000
S3967       S  0.01527249  0.53121049  0.82996971    -0.32350
S3968       S  0.98964966  0.55645026  0.74925142    -0.32360
H3969       H  0.00222436  0.54527717  0.73969629     0.29010
H3970       H  0.00344472  0.54250377  0.84028587     0.29010
H3971       H  0.01272967  0.51193255  0.79629474     0.19600
H3972       H  0.99014715  0.57496321  0.78352937     0.19610
C3973       C  0.07120067  0.60895178  0.85620298    -0.06230
C3974       C  0.05686444  0.62176773  0.85492750    -0.17350
C3975       C  0.03920091  0.61644602  0.84933018     0.10970
C3976       C  0.03545461  0.59764452  0.84580978    -0.06150
C3977       C  0.04989369  0.58485832  0.84762495    -0.17390
C3978       C  0.06761966  0.59029166  0.85255164     0.11000
S3979       S  0.02261165  0.63450284  0.84583916    -0.32350
S3980       S  0.08508541  0.57271854  0.85386316    -0.32360
H3981       H  0.09498119  0.58055451  0.86844215     0.29010
H3982       H  0.01463419  0.62653172  0.83016838     0.29010
H3983       H  0.05960945  0.63613538  0.85774828     0.19600
H3984       H  0.04736442  0.57038336  0.84518631     0.19610
C3985       C  0.14109142  0.56995801  0.89388990    -0.06230
C3986       C  0.13451574  0.56258958  0.91055155    -0.17350
C3987       C  0.13894866  0.54461792  0.91598159     0.10970
C3988       C  0.15019037  0.53363956  0.90453790    -0.06150
C3989       C  0.15676312  0.54092072  0.88792377    -0.17390
C3990       C  0.15267312  0.55897505  0.88264702     0.11000
S3991       S  0.13021304  0.53661949  0.93786145    -0.32350
S3992       S  0.16395823  0.56753574  0.86219350    -0.32360
H3993       H  0.16816003  0.58481605  0.86978382     0.29010
H3994       H  0.12992367  0.51783016  0.93340497     0.29010
H3995       H  0.12570317  0.57080505  0.91933574     0.19600
H3996       H  0.16598729  0.53279189  0.87947480     0.19610
C3997       C  0.11243252  0.67966698  0.89461340    -0.06230
C3998       C  0.10157863  0.69041381  0.88275277    -0.17350
C3999       C  0.09547563  0.70792910  0.88778915     0.10970
C4000       C  0.10074186  0.71534128  0.90491971    -0.06150
C4001       C  0.11204602  0.70487752  0.91657355    -0.17390
C4002       C  0.11806926  0.68727817  0.91157188     0.11000
S4003       S  0.08004569  0.71952682  0.87222832    -0.32350
S4004       S  0.13333286  0.67560552  0.92717256    -0.32360
H4005       H  0.14482289  0.66867474  0.91320050     0.29010
H4006       H  0.06866825  0.72694831  0.88602618     0.29010
H4007       H  0.09709399  0.68481380  0.86970971     0.19600
H4008       H  0.11621706  0.71049898  0.92971378     0.19610
C4009       C  0.14406800  0.32092777  0.85805019    -0.06230
C4010       C  0.14464627  0.30646548  0.87082406    -0.17350
C4011       C  0.14989279  0.28868091  0.86554461     0.10970
C4012       C  0.15347275  0.28479471  0.84672877    -0.06150
C4013       C  0.15223976  0.29936889  0.83393516    -0.17390
C4014       C  0.14799687  0.31731939  0.83938813     0.11000
S4015       S  0.15325060  0.27219537  0.88375627    -0.32350
S4016       S  0.14798628  0.33489375  0.82176386    -0.32360
H4017       H  0.13566580  0.34700902  0.83032964     0.29010
H4018       H  0.16998025  0.26578048  0.87647951     0.29010
H4019       H  0.14167717  0.30922545  0.88519380     0.19600
H4020       H  0.15468450  0.29682369  0.81944346     0.19610
C4021       C  0.10381473  0.38985548  0.82113913    -0.06230
C4022       C  0.10410144  0.40870245  0.81723694    -0.17350
C4023       C  0.10055829  0.41531148  0.79952830     0.10970
C4024       C  0.09620986  0.40283265  0.78525271    -0.06150
C4025       C  0.09612584  0.38390262  0.78910425    -0.17390
C4026       C  0.09986072  0.37727507  0.80688480     0.11000
S4027       S  0.10263133  0.43980272  0.79593885    -0.32350
S4028       S  0.09984309  0.35268427  0.81022765    -0.32360
H4029       H  0.09699361  0.35269715  0.82935106     0.29010
H4030       H  0.10926564  0.43863118  0.77776462     0.29010
H4031       H  0.10772500  0.41835245  0.82798545     0.19600
H4032       H  0.09286459  0.37424857  0.77825998     0.19610
C4033       C  0.10653549  0.35850592  0.92919331    -0.06230
C4034       C  0.10652450  0.33958974  0.93280810    -0.17350
C4035       C  0.10283834  0.33276934  0.95045886     0.10970
C4036       C  0.09838599  0.34510519  0.96485872    -0.06150
C4037       C  0.09902608  0.36411222  0.96133138    -0.17390
C4038       C  0.10316266  0.37094301  0.94371212     0.11000
S4039       S  0.10483576  0.30824944  0.95380512    -0.32350
S4040       S  0.10432772  0.39558634  0.94084656    -0.32360
H4041       H  0.10080693  0.39613774  0.92186356     0.29010
H4042       H  0.11012503  0.30921492  0.97238130     0.29010
H4043       H  0.10989465  0.33004802  0.92185568     0.19600
H4044       H  0.09578845  0.37371114  0.97226108     0.19610
C4045       C  0.14339017  0.42873084  0.89133967    -0.06230
C4046       C  0.14404580  0.43193090  0.91032339    -0.17350
C4047       C  0.14761599  0.44948511  0.91730326     0.10970
C4048       C  0.15146861  0.46421144  0.90503937    -0.06150
C4049       C  0.15027207  0.46103914  0.88598677    -0.17390
C4050       C  0.14610802  0.44355397  0.87903235     0.11000
S4051       S  0.14595744  0.45229276  0.94193748    -0.32350
S4052       S  0.14409810  0.44119764  0.85439027    -0.32360
H4053       H  0.14830716  0.42237583  0.85345002     0.29010
H4054       H  0.14001110  0.47068684  0.94130895     0.29010
H4055       H  0.14110409  0.42076004  0.91981164     0.19600
H4056       H  0.15301738  0.47216707  0.87640712     0.19610
C4057       C  0.59768158  0.03592560  0.34735299    -0.06230
C4058       C  0.58487528  0.05032630  0.34930260    -0.17350
C4059       C  0.59033027  0.06807758  0.35417989     0.10970
C4060       C  0.60900315  0.07164917  0.35768142    -0.06150
C4061       C  0.62179981  0.05732766  0.35638725    -0.17390
C4062       C  0.61648027  0.03968020  0.35080494     0.11000
S4063       S  0.57281675  0.08560251  0.35550024    -0.32350
S4064       S  0.63458495  0.02316763  0.34714076    -0.32360
H4065       H  0.62687229  0.01566314  0.33110585     0.29010
H4066       H  0.58078351  0.09559493  0.36994160     0.29010
H4067       H  0.57041557  0.04777641  0.34692128     0.19600
H4068       H  0.63616730  0.06009551  0.35910417     0.19610
C4069       C  0.59658516  0.96612257  0.34791560    -0.06230
C4070       C  0.60618046  0.95454231  0.33581018    -0.17350
C4071       C  0.61053066  0.93648549  0.34067666     0.10970
C4072       C  0.60555344  0.92976239  0.35825087    -0.06150
C4073       C  0.59610810  0.94131008  0.37050371    -0.17390
C4074       C  0.59145689  0.95937470  0.36548603     0.11000
S4075       S  0.62186494  0.92249668  0.32356530    -0.32350
S4076       S  0.57872257  0.97289684  0.38192444    -0.32360
H4077       H  0.56812173  0.98246410  0.36890920     0.29010
H4078       H  0.61338042  0.90587683  0.32873762     0.29010
H4079       H  0.60989372  0.95949675  0.32220010     0.19600
H4080       H  0.59242731  0.93625969  0.38408222     0.19610
C4081       C  0.40279639  0.09558310  0.28550830    -0.06230
C4082       C  0.38575598  0.08961044  0.29236254    -0.17350
C4083       C  0.37970752  0.09474871  0.30998635     0.10970
C4084       C  0.39112577  0.10575539  0.32114950    -0.06150
C4085       C  0.40805174  0.11183408  0.31415393    -0.17390
C4086       C  0.41399644  0.10692565  0.29653552     0.11000
S4087       S  0.35712874  0.08739412  0.31715709    -0.32350
S4088       S  0.43629941  0.11514528  0.28929851    -0.32360
H4089       H  0.43284207  0.11551609  0.27030975     0.29010
H4090       H  0.35291359  0.10340510  0.32713891     0.29010
H4091       H  0.37713826  0.08090655  0.28393309     0.19600
H4092       H  0.41684065  0.12036658  0.32259425     0.19610
C4093       C  0.55883728  0.00076355  0.30302440    -0.06230
C4094       C  0.54369704  0.98895088  0.30518597    -0.17350
C4095       C  0.52962673  0.98845275  0.29227192     0.10970
C4096       C  0.53041276  0.00023517  0.27684854    -0.06150
C4097       C  0.54538901  0.01211193  0.27455047    -0.17390
C4098       C  0.55982781  0.01221331  0.28721581     0.11000
S4099       S  0.51105529  0.97244697  0.29629925    -0.32350
S4100       S  0.57945337  0.02637356  0.28170967    -0.32360
H4101       H  0.59248157  0.01455019  0.28970940     0.29010
H4102       H  0.49716975  0.98323683  0.28832570     0.29010
H4103       H  0.54260727  0.98021700  0.31725918     0.19600
H4104       H  0.54612234  0.02087876  0.26247289     0.19610
C4105       C  0.47276472  0.02637352  0.25020724    -0.06230
C4106       C  0.46943279  0.03662546  0.26626523    -0.17350
C4107       C  0.45713708  0.05133883  0.26644520     0.10970
C4108       C  0.44530866  0.05427525  0.25122336    -0.06150
C4109       C  0.44801255  0.04338402  0.23544617    -0.17390
C4110       C  0.46242354  0.03073478  0.23425783     0.11000
S4111       S  0.45922568  0.06690211  0.28561525    -0.32350
S4112       S  0.46790448  0.02254682  0.21144547    -0.32360
H4113       H  0.48702446  0.02242139  0.21422685     0.29010
H4114       H  0.45725849  0.08274210  0.27464548     0.29010
H4115       H  0.47708471  0.03385003  0.27870445     0.19600
H4116       H  0.43943238  0.04522893  0.22346060     0.19610
C4117       C  0.50008368  0.94247233  0.19688199    -0.06230
C4118       C  0.48904008  0.93948885  0.21255873    -0.17350
C4119       C  0.48853141  0.95221600  0.22694563     0.10970
C4120       C  0.49951200  0.96811440  0.22577008    -0.06150
C4121       C  0.51050932  0.97114917  0.21021248    -0.17390
C4122       C  0.51058683  0.95881451  0.19558582     0.11000
S4123       S  0.47358284  0.94746895  0.24625356    -0.32350
S4124       S  0.52342159  0.96547403  0.17531226    -0.32360
H4125       H  0.51090376  0.95797479  0.16268351     0.29010
H4126       H  0.48359988  0.95735043  0.25943516     0.29010
H4127       H  0.48088140  0.92707099  0.21369479     0.19600
H4128       H  0.51859280  0.98364170  0.20917772     0.19610
C4129       C  0.78568820  0.85320118  0.65555945    -0.06230
C4130       C  0.79160971  0.84955553  0.63756774    -0.17350
C4131       C  0.80952855  0.85354274  0.63185652     0.10970
C4132       C  0.82193322  0.86207359  0.64420497    -0.06150
C4133       C  0.81585434  0.86608243  0.66213675    -0.17390
C4134       C  0.79792321  0.86186926  0.66789327     0.11000
S4135       S  0.81588282  0.84599443  0.60907719    -0.32350
S4136       S  0.79143657  0.86820722  0.69101727    -0.32360
H4137       H  0.77258304  0.87020936  0.68737093     0.29010
H4138       H  0.83256896  0.83805866  0.61476516     0.29010
H4139       H  0.78250232  0.84249243  0.62816495     0.19600
H4140       H  0.82504558  0.87279456  0.67169873     0.19610
C4141       C  0.71748626  0.84524723  0.64818978    -0.06230
C4142       C  0.71183422  0.86326900  0.65192298    -0.17350
C4143       C  0.69398443  0.86917479  0.64812190     0.10970
C4144       C  0.68135534  0.85702056  0.63963462    -0.06150
C4145       C  0.68713019  0.83901826  0.63561219    -0.17390
C4146       C  0.70499444  0.83304365  0.63971360     0.11000
S4147       S  0.68801027  0.89194719  0.65586719    -0.32350
S4148       S  0.71107174  0.80983061  0.63349809    -0.32360
H4149       H  0.72999425  0.81317583  0.63140952     0.29010
H4150       H  0.67127531  0.88639815  0.66393001     0.29010
H4151       H  0.72112028  0.87256244  0.65890564     0.19600
H4152       H  0.67774967  0.82956947  0.62899625     0.19610
C4153       C  0.75145429  0.80854680  0.69532955    -0.06230
C4154       C  0.76758843  0.79847038  0.69881931    -0.17350
C4155       C  0.76869852  0.78599660  0.71341621     0.10970
C4156       C  0.75252557  0.78097498  0.72316016    -0.06150
C4157       C  0.73625684  0.79069975  0.71932440    -0.17390
C4158       C  0.73595115  0.80525149  0.70675573     0.11000
S4159       S  0.79153682  0.77877061  0.71981251    -0.32350
S4160       S  0.71599529  0.81996933  0.70764254    -0.32360
H4161       H  0.72579214  0.83627960  0.70404407     0.29010
H4162       H  0.78779134  0.77818012  0.73882848     0.29010
H4163       H  0.77981383  0.80072119  0.69059700     0.19600
H4164       H  0.72365368  0.78749352  0.72659629     0.19610
C4165       C  0.84553132  0.65244833  0.71553386    -0.06230
C4166       C  0.86407702  0.64830532  0.71246824    -0.17350
C4167       C  0.87019362  0.64153112  0.69552174     0.10970
C4168       C  0.85769500  0.63947293  0.68070895    -0.06150
C4169       C  0.83903155  0.64309849  0.68397010    -0.17390
C4170       C  0.83275142  0.64918611  0.70120148     0.11000
S4171       S  0.89394937  0.63494540  0.69419561    -0.32350
S4172       S  0.80825983  0.65162873  0.70484749    -0.32360
H4173       H  0.80286089  0.64926866  0.68643500     0.29010
H4174       H  0.88914559  0.61637351  0.69214056     0.29010
H4175       H  0.87396951  0.65040063  0.72336873     0.19600
H4176       H  0.82926948  0.64109612  0.67296256     0.19610
C4177       C  0.84670441  0.65414460  0.78544282    -0.06230
C4178       C  0.85189393  0.66769258  0.79819327    -0.17350
C4179       C  0.85754890  0.66317796  0.81603681     0.10970
C4180       C  0.85903952  0.64447969  0.82132435    -0.06150
C4181       C  0.85430916  0.63091135  0.80833080    -0.17390
C4182       C  0.84779991  0.63548320  0.79076775     0.11000
S4183       S  0.86200052  0.68206687  0.83134391    -0.32350
S4184       S  0.84010858  0.61685183  0.77639504    -0.32360
H4185       H  0.82530784  0.62654451  0.76863995     0.29010
H4186       H  0.84927383  0.67586205  0.84462500     0.29010
H4187       H  0.85109908  0.68208448  0.79434246     0.19600
H4188       H  0.85511793  0.61648975  0.81202369     0.19610
C4189       C  0.80659808  0.69694693  0.74988494    -0.06230
C4190       C  0.79225711  0.69533875  0.73704094    -0.17350
C4191       C  0.77789516  0.70803254  0.73647739     0.10970
C4192       C  0.77759505  0.72252744  0.74925755    -0.06150
C4193       C  0.79183792  0.72427093  0.76204968    -0.17390
C4194       C  0.80654237  0.71196833  0.76223581     0.11000
S4195       S  0.76038736  0.70489213  0.71926433    -0.32350
S4196       S  0.82515345  0.71698782  0.77777707    -0.32360
H4197       H  0.83908964  0.71013662  0.76621362     0.29010
H4198       H  0.74596284  0.71294712  0.72931773     0.29010
H4199       H  0.79201008  0.68387707  0.72755560     0.19600
H4200       H  0.79180643  0.73574686  0.77155408     0.19610
C4201       C  0.65512351  0.71563512  0.84743601    -0.06230
C4202       C  0.63609692  0.71236962  0.84834318    -0.17350
C4203       C  0.62907464  0.69484223  0.85240265     0.10970
C4204       C  0.64130645  0.68006676  0.85538757    -0.06150
C4205       C  0.66025168  0.68334935  0.85492441    -0.17390
C4206       C  0.66728660  0.70091390  0.85137209     0.11000
S4207       S  0.60444332  0.69246614  0.85394390    -0.32350
S4208       S  0.69185803  0.70369840  0.85315810    -0.32360
H4209       H  0.69120552  0.72204992  0.85918490     0.29010
H4210       H  0.60357263  0.67347124  0.85067057     0.29010
H4211       H  0.62659201  0.72346443  0.84544558     0.19600
H4212       H  0.66967112  0.67222083  0.85802346     0.19610
C4213       C  0.69531063  0.75198662  0.80480383    -0.06230
C4214       C  0.71048123  0.76365841  0.80747787    -0.17350
C4215       C  0.72502479  0.76420396  0.79489416     0.10970
C4216       C  0.72458406  0.75261580  0.77941811    -0.06150
C4217       C  0.70947929  0.74105197  0.77659954    -0.17390
C4218       C  0.69464775  0.74092763  0.78882232     0.11000
S4219       S  0.74366570  0.77990208  0.79936752    -0.32350
S4220       S  0.67497635  0.72724341  0.78254050    -0.32360
H4221       H  0.66186757  0.73915120  0.79032399     0.29010
H4222       H  0.75745602  0.76966440  0.79049664     0.29010
H4223       H  0.71118509  0.77220087  0.81965612     0.19600
H4224       H  0.70897986  0.73251064  0.76439659     0.19610
C4225       C  0.53537823  0.65340263  0.90483238    -0.06230
C4226       C  0.55002002  0.66608861  0.90407675    -0.17350
C4227       C  0.56794926  0.66066723  0.89989694     0.10970
C4228       C  0.57148453  0.64217216  0.89545173    -0.06150
C4229       C  0.55702918  0.62942241  0.89581551    -0.17390
C4230       C  0.53919868  0.63465452  0.90105215     0.11000
S4231       S  0.58557141  0.67814856  0.90067532    -0.32350
S4232       S  0.52252004  0.61651154  0.90377069    -0.32360
H4233       H  0.51378631  0.62437562  0.91916019     0.29010
H4234       H  0.59814071  0.66988756  0.88859078     0.29010
H4235       H  0.54752320  0.68053211  0.90670926     0.19600
H4236       H  0.55979042  0.61514966  0.89253301     0.19610
C4237       C  0.46592821  0.65581151  0.89887924    -0.06230
C4238       C  0.45921660  0.63898984  0.90547551    -0.17350
C4239       C  0.44123840  0.63332264  0.90179365     0.10970
C4240       C  0.42976890  0.64430943  0.89048404    -0.06150
C4241       C  0.43659466  0.66113469  0.88379214    -0.17390
C4242       C  0.45447300  0.66699326  0.88789167     0.11000
S4243       S  0.43338420  0.61275978  0.91332711    -0.32350
S4244       S  0.46181669  0.68896115  0.87892068    -0.32360
H4245       H  0.48070500  0.68493973  0.87854921     0.29010
H4246       H  0.41604827  0.62001873  0.91797235     0.29010
H4247       H  0.46770000  0.63072293  0.91452459     0.19600
H4248       H  0.42801962  0.66972130  0.87515497     0.19610
C4249       C  0.50005850  0.72186426  0.97167301    -0.06230
C4250       C  0.49989291  0.72771010  0.95325534    -0.17350
C4251       C  0.49924395  0.71500566  0.93885422     0.10970
C4252       C  0.49833422  0.69604144  0.94303196    -0.06150
C4253       C  0.49868125  0.69019832  0.96137897    -0.17390
C4254       C  0.50002979  0.70283430  0.97569192     0.11000
S4255       S  0.50069607  0.72397001  0.91566795    -0.32350
S4256       S  0.50318744  0.69363670  0.99851351    -0.32360
H4257       H  0.51423061  0.70809676  0.00495731     0.29010
H4258       H  0.49377005  0.70867803  0.90627935     0.29010
H4259       H  0.50037944  0.74227974  0.95008933     0.19600
H4260       H  0.49869652  0.67560801  0.96451275     0.19610
C4261       C  0.53030435  0.77513976  0.00168801    -0.06230
C4262       C  0.54513053  0.77403244  0.01383847    -0.17350
C4263       C  0.55888823  0.78745620  0.01379087     0.10970
C4264       C  0.55730401  0.80291216  0.00194572    -0.06150
C4265       C  0.54234289  0.80388462  0.98981106    -0.17390
C4266       C  0.52897359  0.79015886  0.98944304     0.11000
S4267       S  0.57850041  0.78332255  0.02833270    -0.32350
S4268       S  0.51053555  0.79269353  0.97308033    -0.32360
H4269       H  0.49685851  0.78436176  0.98397711     0.29010
H4270       H  0.59140277  0.79116101  0.01616002     0.29010
H4271       H  0.54627306  0.76230888  0.02301609     0.19600
H4272       H  0.54084582  0.81561998  0.98070940     0.19610
C4273       C  0.40452636  0.71653276  0.10057005    -0.06230
C4274       C  0.41750438  0.70482644  0.10879276    -0.17350
C4275       C  0.41277910  0.68708108  0.11473438     0.10970
C4276       C  0.39459435  0.68061386  0.11231086    -0.06150
C4277       C  0.38155133  0.69259339  0.10453570    -0.17390
C4278       C  0.38632341  0.71018949  0.09839322     0.11000
S4279       S  0.43056794  0.67367718  0.12549051    -0.32350
S4280       S  0.36878359  0.72322004  0.08667987    -0.32360
H4281       H  0.38050986  0.73014488  0.07286355     0.29010
H4282       H  0.41934872  0.66803765  0.14029037     0.29010
H4283       H  0.43150171  0.70955976  0.11057332     0.19600
H4284       H  0.36757355  0.68795880  0.10242335     0.19610
C4285       C  0.44518378  0.75069007  0.05679045    -0.06230
C4286       C  0.44825179  0.73443239  0.04681771    -0.17350
C4287       C  0.46314345  0.73260618  0.03486582     0.10970
C4288       C  0.47362894  0.74828162  0.02986469    -0.06150
C4289       C  0.46995786  0.76487724  0.03915392    -0.17390
C4290       C  0.45705184  0.76582487  0.05343450     0.11000
S4291       S  0.46919545  0.70939832  0.02883082    -0.32350
S4292       S  0.45807407  0.78604236  0.06775058    -0.32360
H4293       H  0.45423797  0.77657698  0.08424808     0.29010
H4294       H  0.48814006  0.71261440  0.03081456     0.29010
H4295       H  0.43957153  0.72253035  0.04894616     0.19600
H4296       H  0.47764299  0.77720072  0.03589351     0.19610
C4297       C  0.60493217  0.85773150  0.93002109    -0.06230
C4298       C  0.59784749  0.87060099  0.94251853    -0.17350
C4299       C  0.59304876  0.86541660  0.96054321     0.10970
C4300       C  0.59581757  0.84703488  0.96637001    -0.06150
C4301       C  0.60306126  0.83429174  0.95379990    -0.17390
C4302       C  0.60733848  0.83933699  0.93572520     0.11000
S4303       S  0.58297645  0.88272084  0.97513947    -0.32350
S4304       S  0.61517885  0.82144791  0.92045403    -0.32360
H4305       H  0.60822104  0.82924358  0.90417765     0.29010
H4306       H  0.57050882  0.87081375  0.98397126     0.29010
H4307       H  0.59607167  0.88477294  0.93821766     0.19600
H4308       H  0.60497630  0.82010384  0.95799826     0.19610
C4309       C  0.64498398  0.82082499  0.86045684    -0.06230
C4310       C  0.64095236  0.81573036  0.84232320    -0.17350
C4311       C  0.64516391  0.79820190  0.83571689     0.10970
C4312       C  0.65361508  0.78523925  0.84750500    -0.06150
C4313       C  0.65737406  0.79020082  0.86576578    -0.17390
C4314       C  0.65319834  0.80782807  0.87239753     0.11000
S4315       S  0.63935289  0.79327610  0.81210205    -0.32350
S4316       S  0.65873817  0.81248573  0.89614278    -0.32360
H4317       H  0.64873853  0.82878810  0.89833221     0.29010
H4318       H  0.63638676  0.77434078  0.81472559     0.29010
H4319       H  0.63440479  0.82554156  0.83319027     0.19600
H4320       H  0.66405062  0.78039884  0.87480025     0.19610
C4321       C  0.60618249  0.88794704  0.82133679    -0.06230
C4322       C  0.61925806  0.89614439  0.80956325    -0.17350
C4323       C  0.61461087  0.90249325  0.79200075     0.10970
C4324       C  0.59651642  0.90009712  0.78546190    -0.06150
C4325       C  0.58353823  0.89141288  0.79695053    -0.17390
C4326       C  0.58812688  0.88528982  0.81466616     0.11000
S4327       S  0.63213779  0.91473242  0.77929731    -0.32350
S4328       S  0.57033580  0.87401017  0.82777671    -0.32360
H4329       H  0.58172106  0.85940762  0.83337588     0.29010
H4330       H  0.62028617  0.92838812  0.77245099     0.29010
H4331       H  0.63314451  0.89843724  0.81435557     0.19600
H4332       H  0.56963389  0.88940772  0.79207112     0.19610
C4333       C  0.65431553  0.84753503  0.21559617    -0.06230
C4334       C  0.63758208  0.84080826  0.20887952    -0.17350
C4335       C  0.63154472  0.84519432  0.19109566     0.10970
C4336       C  0.64253340  0.85657302  0.17969117    -0.06150
C4337       C  0.65920512  0.86339415  0.18653562    -0.17390
C4338       C  0.66526187  0.85891658  0.20423737     0.11000
S4339       S  0.60968538  0.83596253  0.18405943    -0.32350
S4340       S  0.68727819  0.86776828  0.21132690    -0.32360
H4341       H  0.68339372  0.86818760  0.23029103     0.29010
H4342       H  0.60495930  0.85037574  0.17212850     0.29010
H4343       H  0.62930785  0.83180284  0.21746988     0.19600
H4344       H  0.66769589  0.87217802  0.17792225     0.19610
C4345       C  0.59742501  0.84651101  0.03612007    -0.06230
C4346       C  0.60479359  0.83324893  0.04810676    -0.17350
C4347       C  0.61143504  0.83796433  0.06552870     0.10970
C4348       C  0.61046038  0.85645601  0.07150957    -0.06150
C4349       C  0.60340911  0.86976045  0.05926311    -0.17390
C4350       C  0.59675239  0.86500853  0.04185268     0.11000
S4351       S  0.62127188  0.81971771  0.07908422    -0.32350
S4352       S  0.58667092  0.88304591  0.02813090    -0.32360
H4353       H  0.57276470  0.87205014  0.02051940     0.29010
H4354       H  0.63721970  0.82976199  0.08334278     0.29010
H4355       H  0.60551624  0.81901666  0.04375481     0.19600
H4356       H  0.60246003  0.88401046  0.06347471     0.19610
C4357       C  0.57214447  0.89599556  0.14276571    -0.06230
C4358       C  0.56065232  0.90539434  0.13042516    -0.17350
C4359       C  0.54247248  0.90986924  0.13525071     0.10970
C4360       C  0.53547803  0.90447452  0.15264379    -0.06150
C4361       C  0.54701081  0.89503110  0.16486365    -0.17390
C4362       C  0.56521068  0.89101796  0.16027720     0.11000
S4363       S  0.52911718  0.92276677  0.11883881    -0.32350
S4364       S  0.57909198  0.88033593  0.17781393    -0.32360
H4365       H  0.59570851  0.88873622  0.17251873     0.29010
H4366       H  0.51917742  0.93302744  0.13187880     0.29010
H4367       H  0.56583438  0.90918789  0.11692833     0.19600
H4368       H  0.54192219  0.89127050  0.17841454     0.19610
C4369       C  0.39385488  0.13752174  0.07035909    -0.06230
C4370       C  0.41261624  0.13742361  0.06573509    -0.17350
C4371       C  0.41875511  0.14269656  0.04818357     0.10970
C4372       C  0.40601038  0.14938888  0.03505904    -0.06150
C4373       C  0.38724402  0.14880568  0.03941370    -0.17390
C4374       C  0.38100865  0.14244219  0.05650294     0.11000
S4375       S  0.44291136  0.13980363  0.04331048    -0.32350
S4376       S  0.35644592  0.14084494  0.05931451    -0.32360
H4377       H  0.35708154  0.12257175  0.06574417     0.29010
H4378       H  0.44066211  0.13649352  0.02437982     0.29010
H4379       H  0.42265269  0.13305725  0.07581563     0.19600
H4380       H  0.37725162  0.15355961  0.02945813     0.19610
C4381       C  0.39541612  0.11297064  0.18159767    -0.06230
C4382       C  0.41431840  0.11156881  0.18523077    -0.17350
C4383       C  0.42080909  0.10645364  0.20267092     0.10970
C4384       C  0.40816164  0.10153793  0.21675424    -0.06150
C4385       C  0.38933235  0.10367918  0.21333829    -0.17390
C4386       C  0.38287843  0.10984889  0.19631554     0.11000
S4387       S  0.44533015  0.10724040  0.20611950    -0.32350
S4388       S  0.35847422  0.11371828  0.19471583    -0.32360
H4389       H  0.36047181  0.13116400  0.18648769     0.29010
H4390       H  0.44433573  0.11134973  0.22501119     0.29010
H4391       H  0.42419586  0.11454043  0.17442429     0.19600
H4392       H  0.37942603  0.10031432  0.22400818     0.19610
C4393       C  0.15176332  0.21494912  0.84713867    -0.06230
C4394       C  0.13781811  0.20603756  0.83728252    -0.17350
C4395       C  0.13227092  0.18808376  0.84182823     0.10970
C4396       C  0.14108912  0.17861482  0.85635591    -0.06150
C4397       C  0.15493285  0.18767497  0.86623976    -0.17390
C4398       C  0.16040287  0.20557913  0.86178449     0.11000
S4399       S  0.11361850  0.17827875  0.82893213    -0.32350
S4400       S  0.17918310  0.21520387  0.87473534    -0.32360
H4401       H  0.17467146  0.23372719  0.87201786     0.29010
H4402       H  0.10519031  0.16987825  0.84426313     0.29010
H4403       H  0.13135223  0.21305788  0.82583129     0.19600
H4404       H  0.16182809  0.18060088  0.87740529     0.19610
C4405       C  0.03660079  0.15233500  0.90515792    -0.06230
C4406       C  0.04950910  0.16514931  0.89854947    -0.17350
C4407       C  0.06756173  0.15997713  0.89437711     0.10970
C4408       C  0.07299087  0.14146783  0.89657887    -0.06150
C4409       C  0.06015875  0.12857301  0.90306709    -0.17390
C4410       C  0.04210867  0.13381133  0.90750841     0.11000
S4411       S  0.08314885  0.17773721  0.88665846    -0.32350
S4412       S  0.02699788  0.11632330  0.91652062    -0.32360
H4413       H  0.01807818  0.12782997  0.92924943     0.29010
H4414       H  0.09909788  0.16987442  0.89418886     0.29010
H4415       H  0.04555450  0.17943558  0.89694294     0.19600
H4416       H  0.06418923  0.11429917  0.90455837     0.19610
C4417       C  0.90393316  0.09730947  0.71515548    -0.06230
C4418       C  0.90579794  0.11609985  0.71105610    -0.17350
C4419       C  0.90162912  0.12299553  0.69345816     0.10970
C4420       C  0.89582487  0.11071173  0.67957018    -0.06150
C4421       C  0.89351977  0.09209610  0.68385385    -0.17390
C4422       C  0.89709192  0.08535844  0.70147375     0.11000
S4423       S  0.90339377  0.14754039  0.69007705    -0.32350
S4424       S  0.89160524  0.06156072  0.70575693    -0.32360
H4425       H  0.88787858  0.06353127  0.72465590     0.29010
H4426       H  0.90218614  0.14794654  0.67082060     0.29010
H4427       H  0.91075349  0.12540195  0.72155396     0.19600
H4428       H  0.88831362  0.08277746  0.67347107     0.19610
C4429       C  0.97411466  0.02769903  0.75036718    -0.06230
C4430       C  0.96403252  0.03088330  0.73419863    -0.17350
C4431       C  0.94867329  0.04228856  0.73403825     0.10970
C4432       C  0.94486774  0.05372885  0.74935187    -0.06150
C4433       C  0.95568687  0.05137466  0.76524923    -0.17390
C4434       C  0.96906961  0.03761268  0.76640310     0.11000
S4435       S  0.93337000  0.03922048  0.71490495    -0.32350
S4436       S  0.97742796  0.03240259  0.78918625    -0.32360
H4437       H  0.97837380  0.01330146  0.78629849     0.29010
H4438       H  0.91763647  0.03949679  0.72621071     0.29010
H4439       H  0.96740104  0.02365744  0.72162741     0.19600
H4440       H  0.95330574  0.05973804  0.77731637     0.19610
C4441       C  0.09322471  0.03521167  0.84905902    -0.06230
C4442       C  0.11210083  0.03765116  0.85168184    -0.17350
C4443       C  0.11950013  0.05496999  0.85521889     0.10970
C4444       C  0.10794403  0.07048681  0.85643156    -0.06150
C4445       C  0.08898859  0.06814091  0.85411123    -0.17390
C4446       C  0.08146013  0.05072194  0.85067810     0.11000
S4447       S  0.14393239  0.05620865  0.85730883    -0.32350
S4448       S  0.05674487  0.04922284  0.84944461    -0.32360
H4449       H  0.05559790  0.03103923  0.85599733     0.29010
H4450       H  0.14556475  0.07425207  0.85050334     0.29010
H4451       H  0.12134815  0.02606467  0.85016298     0.19600
H4452       H  0.07991547  0.07987055  0.85559450     0.19610
C4453       C  0.05778503  0.99891430  0.80351582    -0.06230
C4454       C  0.06099036  0.01096312  0.78861182    -0.17350
C4455       C  0.04859275  0.01229121  0.77402300     0.10970
C4456       C  0.03287561  0.00104622  0.77413327    -0.06150
C4457       C  0.02989755  0.98866890  0.78861606    -0.17390
C4458       C  0.04184678  0.98778379  0.80348412     0.11000
S4459       S  0.05339793  0.02872509  0.75597987    -0.32350
S4460       S  0.03493828  0.97336043  0.82250416    -0.32360
H4461       H  0.04014602  0.98604426  0.83610418     0.29010
H4462       H  0.04368079  0.01973092  0.74196182     0.29010
H4463       H  0.07316280  0.01954012  0.78840995     0.19600
H4464       H  0.01763160  0.98019826  0.78871983     0.19610
C4465       C  0.93168085  0.89034639  0.64509211    -0.06230
C4466       C  0.94401914  0.89667985  0.63146933    -0.17350
C4467       C  0.96161161  0.90293231  0.63590036     0.10970
C4468       C  0.96743019  0.90246105  0.65438292    -0.06150
C4469       C  0.95536484  0.89569455  0.66795862    -0.17390
C4470       C  0.93771579  0.88955680  0.66357013     0.11000
S4471       S  0.97541556  0.91237039  0.61747953    -0.32350
S4472       S  0.92390566  0.88066467  0.68220070    -0.32360
H4473       H  0.91865804  0.86478388  0.67252259     0.29010
H4474       H  0.98328556  0.92648446  0.62803413     0.29010
H4475       H  0.93972236  0.89748662  0.61722394     0.19600
H4476       H  0.95979083  0.89514683  0.68218700     0.19610
C4477       C  0.07252195  0.89498717  0.64013247    -0.06230
C4478       C  0.06373621  0.88456418  0.65393320    -0.17350
C4479       C  0.04602551  0.88882752  0.66006485     0.10970
C4480       C  0.03666152  0.90387763  0.65223414    -0.06150
C4481       C  0.04532423  0.91437478  0.63846985    -0.17390
C4482       C  0.06304388  0.91000527  0.63220716     0.11000
S4483       S  0.03665105  0.87517639  0.67865772    -0.32350
S4484       S  0.07249036  0.92376493  0.61381232    -0.32360
H4485       H  0.08022162  0.90878441  0.60432676     0.29010
H4486       H  0.01808796  0.87709682  0.67390301     0.29010
H4487       H  0.07085992  0.87309764  0.66025844     0.19600
H4488       H  0.03823026  0.92610629  0.63261421     0.19610
C4489       C  0.00228854  0.94338796  0.69602447    -0.06230
C4490       C  0.01226147  0.95963172  0.69305959    -0.17350
C4491       C  0.01197957  0.97377396  0.70593519     0.10970
C4492       C  0.00152007  0.97165197  0.72217707    -0.06150
C4493       C  0.99153694  0.95549917  0.72525780    -0.17390
C4494       C  0.99203529  0.94118893  0.71249676     0.11000
S4495       S  0.02535196  0.99410725  0.70090878    -0.32350
S4496       S  0.98008409  0.92026047  0.71851042    -0.32360
H4497       H  0.99241894  0.90838930  0.70950185     0.29010
H4498       H  0.01386866  0.00663340  0.71011167     0.29010
H4499       H  0.02005808  0.96146037  0.68043683     0.19600
H4500       H  0.98381239  0.95381922  0.73794646     0.19610
C4501       C  0.10747768  0.93004249  0.86018123    -0.06230
C4502       C  0.08911100  0.93521291  0.86320786    -0.17350
C4503       C  0.08278996  0.95284871  0.85873066     0.10970
C4504       C  0.09495117  0.96579656  0.85079846    -0.06150
C4505       C  0.11338156  0.96093988  0.84817628    -0.17390
C4506       C  0.11973701  0.94325995  0.85250434     0.11000
S4507       S  0.05903119  0.95797585  0.86356392    -0.32350
S4508       S  0.14332340  0.93834818  0.84669471    -0.32360
H4509       H  0.13904305  0.92206337  0.83719715     0.29010
H4510       H  0.06136718  0.97703407  0.86573387     0.29010
H4511       H  0.07954527  0.92548320  0.86925636     0.19600
H4512       H  0.12269578  0.97072063  0.84179879     0.19610
C4513       C  0.10544135  0.81942215  0.88799851    -0.06230
C4514       C  0.08656971  0.81565944  0.88994517    -0.17350
C4515       C  0.08020895  0.79811597  0.89527382     0.10970
C4516       C  0.09301876  0.78408099  0.89952867    -0.06150
C4517       C  0.11177382  0.78765361  0.89679238    -0.17390
C4518       C  0.11804890  0.80475096  0.89059533     0.11000
S4519       S  0.05578277  0.79363628  0.89562811    -0.32350
S4520       S  0.14233448  0.80647332  0.88590811    -0.32360
H4521       H  0.13983793  0.81486185  0.86860107     0.29010
H4522       H  0.05003541  0.81147046  0.89081299     0.29010
H4523       H  0.07675638  0.82653126  0.88735795     0.19600
H4524       H  0.12178744  0.77701011  0.89967211     0.19610
C4525       C  0.35522403  0.07030301  0.11297381    -0.06230
C4526       C  0.36782964  0.05892904  0.10370442    -0.17350
C4527       C  0.36282184  0.04163282  0.09715965     0.10970
C4528       C  0.34487000  0.03498337  0.10041675    -0.06150
C4529       C  0.33227915  0.04612593  0.10993238    -0.17390
C4530       C  0.33726172  0.06358360  0.11635783     0.11000
S4531       S  0.37968303  0.02935469  0.08367205    -0.32350
S4532       S  0.32020997  0.07623373  0.12911988    -0.32360
H4533       H  0.33250674  0.08173100  0.14295531     0.29010
H4534       H  0.36711094  0.02253280  0.07071521     0.29010
H4535       H  0.38159496  0.06383799  0.10077704     0.19600
H4536       H  0.31847525  0.04111744  0.11247944     0.19610
C4537       C  0.30583708  0.00069812  0.05576484    -0.06230
C4538       C  0.29572095  0.98451880  0.05273419    -0.17350
C4539       C  0.28347073  0.98299013  0.03809026     0.10970
C4540       C  0.27841325  0.99887737  0.02790597    -0.06150
C4541       C  0.28770019  0.01541707  0.03181392    -0.17390
C4542       C  0.30226956  0.01606100  0.04424727     0.11000
S4543       S  0.27719386  0.95989588  0.03187670    -0.32350
S4544       S  0.31677185  0.03616849  0.04285033    -0.32360
H4545       H  0.33325311  0.02645759  0.04564486     0.29010
H4546       H  0.27945636  0.96329189  0.01292991     0.29010
H4547       H  0.29803356  0.97244662  0.06115490     0.19600
H4548       H  0.28432169  0.02796050  0.02454779     0.19610
C4549       C  0.28647998  0.09696647  0.90365221    -0.06230
C4550       C  0.29862904  0.08319650  0.89755410    -0.17350
C4551       C  0.31613607  0.08746702  0.89068130     0.10970
C4552       C  0.32187175  0.10604879  0.88979201    -0.06150
C4553       C  0.30945048  0.11979772  0.89544788    -0.17390
C4554       C  0.29213541  0.11551107  0.90263633     0.11000
S4555       S  0.33023650  0.06853024  0.88324733    -0.32350
S4556       S  0.27862073  0.13433834  0.91149116    -0.32360
H4557       H  0.27180068  0.12464561  0.92685117     0.29010
H4558       H  0.33500163  0.07690897  0.86640336     0.29010
H4559       H  0.29440753  0.06890852  0.89809995     0.19600
H4560       H  0.31352059  0.13412656  0.89508589     0.19610
C4561       C  0.21742162  0.10120984  0.90727832    -0.06230
C4562       C  0.20787852  0.08972570  0.89530977    -0.17350
C4563       C  0.19005749  0.09383612  0.88979985     0.10970
C4564       C  0.18128851  0.10999804  0.89604369    -0.06150
C4565       C  0.19099700  0.12179602  0.90783260    -0.17390
C4566       C  0.20899497  0.11759013  0.91352481     0.11000
S4567       S  0.17892474  0.07708299  0.87577926    -0.32350
S4568       S  0.22033700  0.13374605  0.92849392    -0.32360
H4569       H  0.23414358  0.12207342  0.93518258     0.29010
H4570       H  0.16206913  0.07849429  0.88523429     0.29010
H4571       H  0.21418420  0.07701021  0.89072323     0.19600
H4572       H  0.18458817  0.13439876  0.91252541     0.19610
C4573       C  0.25087984  0.05628718  0.94574418    -0.06230
C4574       C  0.24912402  0.06022591  0.96450955    -0.17350
C4575       C  0.24899925  0.04614349  0.97760393     0.10970
C4576       C  0.25099053  0.02770392  0.97182374    -0.06150
C4577       C  0.25264740  0.02375966  0.95301867    -0.17390
C4578       C  0.25251954  0.03785607  0.93989554     0.11000
S4579       S  0.24598446  0.05259412  0.00139913    -0.32350
S4580       S  0.25463061  0.03145711  0.91599621    -0.32360
H4581       H  0.24447422  0.04622299  0.90878294     0.29010
H4582       H  0.23590690  0.03691100  0.00660871     0.29010
H4583       H  0.24777460  0.07438110  0.96896005     0.19600
H4584       H  0.25406160  0.00961464  0.94856299     0.19610
C4585       C  0.15237448  0.90454504  0.03468807    -0.06230
C4586       C  0.14515088  0.91772809  0.04683033    -0.17350
C4587       C  0.13893014  0.91291303  0.06446482     0.10970
C4588       C  0.14016496  0.89441006  0.07045301    -0.06150
C4589       C  0.14709751  0.88119780  0.05807636    -0.17390
C4590       C  0.15337663  0.88604329  0.04048926     0.11000
S4591       S  0.12926988  0.93103099  0.07829295    -0.32350
S4592       S  0.16345997  0.86810848  0.02663058    -0.32360
H4593       H  0.17722035  0.87922011  0.01873082     0.29010
H4594       H  0.11349492  0.92085593  0.08306936     0.29010
H4595       H  0.14421014  0.93195931  0.04244383     0.19600
H4596       H  0.14826799  0.86694858  0.06231262     0.19610
C4597       C  0.15332964  0.90257796  0.96529012    -0.06230
C4598       C  0.16115444  0.88643675  0.95819045    -0.17350
C4599       C  0.15651780  0.88003738  0.94060347     0.10970
C4600       C  0.14393385  0.89011645  0.92976727    -0.06150
C4601       C  0.13603957  0.90616612  0.93702290    -0.17390
C4602       C  0.14061225  0.91251304  0.95455924     0.11000
S4603       S  0.16671789  0.85877278  0.93302613    -0.32350
S4604       S  0.13021721  0.93371656  0.96218103    -0.32360
H4605       H  0.13052910  0.92972027  0.98111359     0.29010
H4606       H  0.15104004  0.85241757  0.92374289     0.29010
H4607       H  0.17105166  0.87887105  0.96635149     0.19600
H4608       H  0.12637133  0.91400068  0.92883303     0.19610
C4609       C  0.22132731  0.97252900  0.99922332    -0.06230
C4610       C  0.20284988  0.97798920  0.99982861    -0.17350
C4611       C  0.18867076  0.96499858  0.99962637     0.10970
C4612       C  0.19316759  0.94611333  0.99902435    -0.06150
C4613       C  0.21157255  0.94067553  0.99814333    -0.17390
C4614       C  0.22566368  0.95364654  0.99783397     0.11000
S4615       S  0.16537653  0.97363921  0.99982972    -0.32350
S4616       S  0.24870821  0.94515820  0.99463935    -0.32360
H4617       H  0.25524071  0.96048324  0.98474860     0.29010
H4618       H  0.15579318  0.95696558  0.00116161     0.29010
H4619       H  0.19946924  0.99248915  0.00051809     0.19600
H4620       H  0.21495458  0.92617684  0.99731594     0.19610
C4621       C  0.28494520  0.85032440  0.15448493    -0.06230
C4622       C  0.29012890  0.84840082  0.13601878    -0.17350
C4623       C  0.30786688  0.85289799  0.13003638     0.10970
C4624       C  0.32078228  0.86023199  0.14266300    -0.06150
C4625       C  0.31540855  0.86243263  0.16112704    -0.17390
C4626       C  0.29770941  0.85767230  0.16712547     0.11000
S4627       S  0.31331880  0.84755295  0.10642095    -0.32350
S4628       S  0.29217581  0.86154888  0.19103302    -0.32360
H4629       H  0.27338777  0.86495344  0.18815286     0.29010
H4630       H  0.32996775  0.83873137  0.11076752     0.29010
H4631       H  0.28057399  0.84235857  0.12635416     0.19600
H4632       H  0.32498261  0.86812723  0.17096840     0.19610
C4633       C  0.38998890  0.82120889  0.10549912    -0.06230
C4634       C  0.38599694  0.81554680  0.08746972    -0.17350
C4635       C  0.39004815  0.79768396  0.08149630     0.10970
C4636       C  0.39846911  0.78512939  0.09372373    -0.06150
C4637       C  0.40214939  0.79065253  0.11178662    -0.17390
C4638       C  0.39836246  0.80849757  0.11770906     0.11000
S4639       S  0.38384696  0.79167629  0.05826464    -0.32350
S4640       S  0.40593824  0.81434838  0.14056700    -0.32360
H4641       H  0.41395632  0.83113166  0.13511088     0.29010
H4642       H  0.38161966  0.77275721  0.06166643     0.29010
H4643       H  0.37942367  0.82500673  0.07801103     0.19600
H4644       H  0.40905417  0.78126373  0.12109321     0.19610
C4645       C  0.36198630  0.93092100  0.10577923    -0.06230
C4646       C  0.36380235  0.93592097  0.08714755    -0.17350
C4647       C  0.35926552  0.95362160  0.08097540     0.10970
C4648       C  0.35227795  0.96669026  0.09359126    -0.06150
C4649       C  0.35106843  0.96193435  0.11225471    -0.17390
C4650       C  0.35562461  0.94434356  0.11846897     0.11000
S4651       S  0.36322110  0.95875404  0.05696747    -0.32350
S4652       S  0.35182407  0.93993562  0.14262381    -0.32360
H4653       H  0.34083367  0.92434821  0.13942095     0.29010
H4654       H  0.36617835  0.97769777  0.05944876     0.29010
H4655       H  0.36900310  0.92603571  0.07728313     0.19600
H4656       H  0.34553089  0.97174800  0.12202259     0.19610
C4657       C  0.42964008  0.89106441  0.14370660    -0.06230
C4658       C  0.44410767  0.87835656  0.14427064    -0.17350
C4659       C  0.46181990  0.88365979  0.14968963     0.10970
C4660       C  0.46550330  0.90239802  0.15362225    -0.06150
C4661       C  0.45094308  0.91512152  0.15233840    -0.17390
C4662       C  0.43314773  0.90965245  0.14774096     0.11000
S4663       S  0.47852852  0.86559486  0.15248853    -0.32350
S4664       S  0.41550791  0.92708332  0.14723151    -0.32360
H4665       H  0.40592306  0.91981900  0.13215573     0.29010
H4666       H  0.48630239  0.87296316  0.16855602     0.29010
H4667       H  0.44141790  0.86404981  0.14110428     0.19600
H4668       H  0.45340021  0.92956488  0.15500483     0.19610
C4669       C  0.28470055  0.65585931  0.85107710    -0.06230
C4670       C  0.29659465  0.66888904  0.85889713    -0.17350
C4671       C  0.31431428  0.66406958  0.86473287     0.10970
C4672       C  0.32056373  0.64575873  0.86256797    -0.06150
C4673       C  0.30844331  0.63271400  0.85507995    -0.17390
C4674       C  0.29089149  0.63756267  0.84904982     0.11000
S4675       S  0.32797159  0.68186252  0.87509631    -0.32350
S4676       S  0.27770772  0.61997427  0.83763478    -0.32360
H4677       H  0.27087400  0.63161021  0.82375332     0.29010
H4678       H  0.33377294  0.67072415  0.88984367     0.29010
H4679       H  0.29201630  0.68298101  0.86047874     0.19600
H4680       H  0.31293411  0.61864601  0.85310801     0.19610
C4681       C  0.17998543  0.64002512  0.85677221    -0.06230
C4682       C  0.18575447  0.63653304  0.83863036    -0.17350
C4683       C  0.20357634  0.64093587  0.83266793     0.10970
C4684       C  0.21601272  0.64933661  0.84498816    -0.06150
C4685       C  0.21039977  0.65249658  0.86317435    -0.17390
C4686       C  0.19259804  0.64826475  0.86911568     0.11000
S4687       S  0.20969667  0.63508128  0.80931747    -0.32350
S4688       S  0.18665860  0.65507779  0.89223627    -0.32360
H4689       H  0.16988064  0.66317521  0.88707597     0.29010
H4690       H  0.22856394  0.63273323  0.81269770     0.29010
H4691       H  0.17641822  0.63003141  0.82906393     0.19600
H4692       H  0.21967377  0.65930021  0.87260386     0.19610
C4693       C  0.34889341  0.71564270  0.65231960    -0.06230
C4694       C  0.33775180  0.70625112  0.63972672    -0.17350
C4695       C  0.34235702  0.68862007  0.63349382     0.10970
C4696       C  0.35830241  0.67988140  0.64029941    -0.06150
C4697       C  0.36945864  0.68940485  0.65285595    -0.17390
C4698       C  0.36495528  0.70708724  0.65894506     0.11000
S4699       S  0.32761158  0.67833363  0.61654166    -0.32350
S4700       S  0.37961438  0.71729813  0.67609885    -0.32360
H4701       H  0.37609723  0.73574523  0.67171656     0.29010
H4702       H  0.34210547  0.67104471  0.60596395     0.29010
H4703       H  0.32529854  0.71272393  0.63475817     0.19600
H4704       H  0.38165763  0.68285239  0.65831725     0.19610
C4705       C  0.34755234  0.78484972  0.65290333    -0.06230
C4706       C  0.36443840  0.79124440  0.65957777    -0.17350
C4707       C  0.37048785  0.80919905  0.65589051     0.10970
C4708       C  0.35936955  0.82110115  0.64525781    -0.06150
C4709       C  0.34253986  0.81458556  0.63850794    -0.17390
C4710       C  0.33647577  0.79672118  0.64228742     0.11000
S4711       S  0.39252180  0.81579593  0.66501648    -0.32350
S4712       S  0.31433760  0.79001967  0.63344345    -0.32360
H4713       H  0.31825842  0.77115911  0.63190554     0.29010
H4714       H  0.39713798  0.82828321  0.65100798     0.29010
H4715       H  0.37282256  0.78226154  0.66801059     0.19600
H4716       H  0.33395794  0.82356310  0.63026796     0.19610
C4717       C  0.15229386  0.84507243  0.71595298    -0.06230
C4718       C  0.15239564  0.86389971  0.71185263    -0.17350
C4719       C  0.14663944  0.87049185  0.69468755     0.10970
C4720       C  0.14141771  0.85790726  0.68069066    -0.06150
C4721       C  0.14077011  0.83909723  0.68511481    -0.17390
C4722       C  0.14562085  0.83265801  0.70260860     0.11000
S4723       S  0.14619824  0.89510976  0.69192263    -0.32350
S4724       S  0.14214886  0.80855948  0.70720436    -0.32360
H4725       H  0.13856838  0.81063597  0.72612843     0.29010
H4726       H  0.12775949  0.89533798  0.68614602     0.29010
H4727       H  0.15712103  0.87358981  0.72211058     0.19600
H4728       H  0.13621436  0.82924869  0.67494200     0.19610
C4729       C  0.15507568  0.84746527  0.78516298    -0.06230
C4730       C  0.16779342  0.85700707  0.79604477    -0.17350
C4731       C  0.16300503  0.86371751  0.81347336     0.10970
C4732       C  0.14517016  0.86041035  0.82055512    -0.06150
C4733       C  0.13238480  0.85114177  0.80940428    -0.17390
C4734       C  0.13715718  0.84452094  0.79197237     0.11000
S4735       S  0.18005931  0.87691654  0.82552806    -0.32350
S4736       S  0.12000836  0.83171083  0.77953193    -0.32360
H4737       H  0.13228627  0.81930888  0.77120580     0.29010
H4738       H  0.16761020  0.89060331  0.83120278     0.29010
H4739       H  0.18155388  0.85940764  0.79080048     0.19600
H4740       H  0.11864849  0.84842571  0.81453691     0.19610
C4741       C  0.27922038  0.74995620  0.72194104    -0.06230
C4742       C  0.27746321  0.73760297  0.70731269    -0.17350
C4743       C  0.29031077  0.73736223  0.69295339     0.10970
C4744       C  0.30575230  0.74920982  0.69366154    -0.06150
C4745       C  0.30749588  0.76138712  0.70853280    -0.17390
C4746       C  0.29440808  0.76196127  0.72256716     0.11000
S4747       S  0.28547476  0.72248323  0.67374537    -0.32350
S4748       S  0.29794669  0.77826683  0.74091589    -0.32360
H4749       H  0.28993665  0.76755570  0.75495112     0.29010
H4750       H  0.29269640  0.73441621  0.66026571     0.29010
H4751       H  0.26563937  0.72856163  0.70676327     0.19600
H4752       H  0.31931014  0.77041158  0.70937099     0.19610
C4753       C  0.22688625  0.78119346  0.75217391    -0.06230
C4754       C  0.21200505  0.77802837  0.74048223    -0.17350
C4755       C  0.19701116  0.78992193  0.74009588     0.10970
C4756       C  0.19725919  0.80609458  0.75088730    -0.06150
C4757       C  0.21235102  0.80924589  0.76256254    -0.17390
C4758       C  0.22701832  0.79685121  0.76350726     0.11000
S4759       S  0.17753245  0.78263530  0.72678558    -0.32350
S4760       S  0.24524518  0.80164501  0.77954681    -0.32360
H4761       H  0.25917681  0.79208784  0.77015236     0.29010
H4762       H  0.16440019  0.78915995  0.73943549     0.29010
H4763       H  0.21172119  0.76567033  0.73216037     0.19600
H4764       H  0.21278211  0.82151182  0.77098419     0.19610
C4765       C  0.25052619  0.72212006  0.77803472    -0.06230
C4766       C  0.26640720  0.71162179  0.78144896    -0.17350
C4767       C  0.26620584  0.69669563  0.79355377     0.10970
C4768       C  0.25071395  0.69374658  0.80508127    -0.06150
C4769       C  0.23493981  0.70449932  0.80199143    -0.17390
C4770       C  0.23423117  0.71746886  0.78777903     0.11000
S4771       S  0.28545684  0.68110831  0.79193400    -0.32350
S4772       S  0.21167387  0.72586581  0.78184500    -0.32360
H4773       H  0.21522993  0.72676774  0.76280501     0.29010
H4774       H  0.27502858  0.66517734  0.79546386     0.29010
H4775       H  0.27908601  0.71450880  0.77417748     0.19600
H4776       H  0.22270197  0.70245668  0.81025023     0.19610
C4777       C  0.35077973  0.28463557  0.15518508    -0.06230
C4778       C  0.36064449  0.29567278  0.16751514    -0.17350
C4779       C  0.36616199  0.31351510  0.16269964     0.10970
C4780       C  0.36141304  0.32073307  0.14523964    -0.06150
C4781       C  0.35187664  0.30945855  0.13282804    -0.17390
C4782       C  0.34629419  0.29173239  0.13766173     0.11000
S4783       S  0.37963221  0.32600683  0.17922483    -0.32350
S4784       S  0.33243752  0.27941833  0.12124777    -0.32360
H4785       H  0.32029671  0.27188528  0.13436574     0.29010
H4786       H  0.39230847  0.33260639  0.16609276     0.29010
H4787       H  0.36409899  0.29030818  0.18100172     0.19600
H4788       H  0.34802589  0.31474526  0.11942004     0.19610
C4789       C  0.34521215  0.21576624  0.14916046    -0.06230
C4790       C  0.33177708  0.20294992  0.14381833    -0.17350
C4791       C  0.33634061  0.18475136  0.13951984     0.10970
C4792       C  0.35500733  0.17928238  0.13925970    -0.06150
C4793       C  0.36848032  0.19243581  0.14363991    -0.17390
C4794       C  0.36384351  0.21024359  0.14908774     0.11000
S4795       S  0.31756540  0.16922549  0.13536584    -0.32350
S4796       S  0.38237452  0.22452909  0.15719465    -0.32360
H4797       H  0.37271676  0.23107217  0.17266108     0.29010
H4798       H  0.32283036  0.15713205  0.14956752     0.29010
H4799       H  0.31743148  0.20692033  0.14375909     0.19600
H4800       H  0.38287050  0.18863540  0.14368422     0.19610
C4801       C  0.30561449  0.25059669  0.19378268    -0.06230
C4802       C  0.30053674  0.23417651  0.20279923    -0.17350
C4803       C  0.28558301  0.23344935  0.21484666     0.10970
C4804       C  0.27771376  0.25003369  0.22145907    -0.06150
C4805       C  0.28326719  0.26656991  0.21296038    -0.17390
C4806       C  0.29547038  0.26671908  0.19808787     0.11000
S4807       S  0.27605739  0.21085447  0.21893540    -0.32350
S4808       S  0.29526561  0.28730427  0.18410642    -0.32360
H4809       H  0.29751075  0.27792690  0.16732332     0.29010
H4810       H  0.25774628  0.21697503  0.22002017     0.29010
H4811       H  0.30754768  0.22138393  0.19994947     0.19600
H4812       H  0.27755333  0.27962681  0.21719210     0.19610
C4813       C  0.15482336  0.35132031  0.28448535    -0.06230
C4814       C  0.16316394  0.36668669  0.29257961    -0.17350
C4815       C  0.15835372  0.37231305  0.31045761     0.10970
C4816       C  0.14519815  0.36212435  0.32062615    -0.06150
C4817       C  0.13694836  0.34677075  0.31242668    -0.17390
C4818       C  0.14159855  0.34125572  0.29461337     0.11000
S4819       S  0.16902873  0.39281746  0.31924641    -0.32350
S4820       S  0.13091209  0.32057483  0.28608292    -0.32360
H4821       H  0.13028782  0.32588986  0.26751556     0.29010
H4822       H  0.15319334  0.39933443  0.32827913     0.29010
H4823       H  0.17350532  0.37429000  0.28494670     0.19600
H4824       H  0.12691983  0.33878022  0.32009832     0.19610
C4825       C  0.13982352  0.35513633  0.17938126    -0.06230
C4826       C  0.15675592  0.36122774  0.18619117    -0.17350
C4827       C  0.16236109  0.35698311  0.20406651     0.10970
C4828       C  0.15077722  0.34642823  0.21561581    -0.06150
C4829       C  0.13379712  0.34031552  0.20890768    -0.17390
C4830       C  0.12811784  0.34470774  0.19096720     0.11000
S4831       S  0.18477387  0.36489886  0.21106797    -0.32350
S4832       S  0.10565632  0.33713878  0.18390884    -0.32360
H4833       H  0.10157542  0.35286816  0.17338054     0.29010
H4834       H  0.18054935  0.36703659  0.22982588     0.29010
H4835       H  0.16577606  0.36932154  0.17743702     0.19600
H4836       H  0.12497604  0.33202914  0.21766808     0.19610
C4837       C  0.19282113  0.30533442  0.25084403    -0.06230
C4838       C  0.20195091  0.30053164  0.23440356    -0.17350
C4839       C  0.21424302  0.28582364  0.23363231     0.10970
C4840       C  0.22086934  0.27789197  0.25022758    -0.06150
C4841       C  0.21224055  0.28323140  0.26678196    -0.17390
C4842       C  0.19721105  0.29515291  0.26693754     0.11000
S4843       S  0.21870066  0.27675378  0.21091638    -0.32350
S4844       S  0.18313540  0.29449962  0.28746082    -0.32360
H4845       H  0.16647414  0.29667339  0.27795033     0.29010
H4846       H  0.21964417  0.25831794  0.21677575     0.29010
H4847       H  0.19903902  0.30760633  0.22163549     0.19600
H4848       H  0.21649069  0.27757152  0.27986804     0.19610
C4849       C  0.28520977  0.15639404  0.35392468    -0.06230
C4850       C  0.28953385  0.13763004  0.35343206    -0.17350
C4851       C  0.30689021  0.13115706  0.35840649     0.10970
C4852       C  0.32092454  0.14379196  0.36336048    -0.06150
C4853       C  0.31636893  0.16255335  0.36448086    -0.17390
C4854       C  0.29867650  0.16890786  0.36026458     0.11000
S4855       S  0.30989051  0.10656772  0.35786503    -0.32350
S4856       S  0.29412062  0.19302829  0.36381497    -0.32360
H4857       H  0.27519607  0.19091199  0.36718937     0.29010
H4858       H  0.31577072  0.10567223  0.37628886     0.29010
H4859       H  0.27937221  0.12785062  0.34868688     0.19600
H4860       H  0.32662772  0.17241645  0.36879821     0.19610
C4861       C  0.21705212  0.14935436  0.34547171    -0.06230
C4862       C  0.20834339  0.15860106  0.35996645    -0.17350
C4863       C  0.19009934  0.15486526  0.36470097     0.10970
C4864       C  0.18032578  0.14104678  0.35516075    -0.06150
C4865       C  0.18903072  0.13182420  0.34055973    -0.17390
C4866       C  0.20727343  0.13582432  0.33563779     0.11000
S4867       S  0.17977287  0.16914042  0.38219226    -0.32350
S4868       S  0.21731487  0.12324128  0.31676743    -0.32360
H4869       H  0.23565725  0.12494326  0.32249728     0.29010
H4870       H  0.16251920  0.17027110  0.37358496     0.29010
H4871       H  0.21557594  0.16948237  0.36709356     0.19600
H4872       H  0.18172423  0.12116615  0.33319732     0.19610
C4873       C  0.25123833  0.19494676  0.30763654    -0.06230
C4874       C  0.26768755  0.20017258  0.29876731    -0.17350
C4875       C  0.26846557  0.21531649  0.28692131     0.10970
C4876       C  0.25191925  0.22340584  0.28050639    -0.06150
C4877       C  0.23535703  0.21757404  0.28877321    -0.17390
C4878       C  0.23512940  0.20508186  0.30338351     0.11000
S4879       S  0.29110041  0.22466895  0.28276423    -0.32350
S4880       S  0.21439244  0.20485716  0.31713812    -0.32360
H4881       H  0.22358501  0.20256527  0.33399818     0.29010
H4882       H  0.28516484  0.24306678  0.28197901     0.29010
H4883       H  0.28042966  0.19311755  0.30161852     0.19600
H4884       H  0.22230880  0.22324440  0.28455087     0.19610
C4885       C  0.57177737  0.11099581  0.85585238    -0.06230
C4886       C  0.56306040  0.09620732  0.86476409    -0.17350
C4887       C  0.54533204  0.09071991  0.85997534     0.10970
C4888       C  0.53586904  0.10027564  0.84598496    -0.06150
C4889       C  0.54449689  0.11506001  0.83701084    -0.17390
C4890       C  0.56224844  0.12065373  0.84192233     0.11000
S4891       S  0.53616734  0.07054965  0.87125695    -0.32350
S4892       S  0.57169864  0.14045288  0.83031136    -0.32360
H4893       H  0.57996701  0.14786896  0.84611228     0.29010
H4894       H  0.51798110  0.07680312  0.87242304     0.29010
H4895       H  0.57026691  0.08861456  0.87537957     0.19600
H4896       H  0.53736156  0.12223735  0.82606992     0.19610
C4897       C  0.61187700  0.18084543  0.89384385    -0.06230
C4898       C  0.60933713  0.18461001  0.91261888    -0.17350
C4899       C  0.60402512  0.20206840  0.91868923     0.10970
C4900       C  0.60012881  0.21611605  0.90568473    -0.06150
C4901       C  0.60329610  0.21260392  0.88698370    -0.17390
C4902       C  0.60957487  0.19543248  0.88098175     0.11000
S4903       S  0.60310373  0.20554834  0.94327507    -0.32350
S4904       S  0.61479933  0.19345808  0.85679001    -0.32360
H4905       H  0.63192111  0.18497142  0.85976930     0.29010
H4906       H  0.60819674  0.22419894  0.94261774     0.29010
H4907       H  0.61157889  0.17388430  0.92275061     0.19600
H4908       H  0.60074201  0.22330386  0.87689560     0.19610
C4909       C  0.85545281  0.67950193  0.14086100    -0.06230
C4910       C  0.84001556  0.68736342  0.13230974    -0.17350
C4911       C  0.83455443  0.70549602  0.13620235     0.10970
C4912       C  0.84476847  0.71606472  0.14883466    -0.06150
C4913       C  0.86008691  0.70822747  0.15735589    -0.17390
C4914       C  0.86526236  0.69009594  0.15386870     0.11000
S4915       S  0.81452407  0.71436143  0.12468095    -0.32350
S4916       S  0.88349596  0.68089121  0.16777068    -0.32360
H4917       H  0.87450609  0.66400520  0.17080312     0.29010
H4918       H  0.81934084  0.73303712  0.12588147     0.29010
H4919       H  0.83234850  0.67947005  0.12231292     0.19600
H4920       H  0.86750650  0.71602216  0.16763749     0.19610
C4921       C  0.85605541  0.57054942  0.11088486    -0.06230
C4922       C  0.86959821  0.55749116  0.10616399    -0.17350
C4923       C  0.86500034  0.53989454  0.09990051     0.10970
C4924       C  0.84635492  0.53480398  0.09858980    -0.06150
C4925       C  0.83280338  0.54754707  0.10380990    -0.17390
C4926       C  0.83737000  0.56515628  0.11007082     0.11000
S4927       S  0.88357872  0.52505973  0.09283074    -0.32350
S4928       S  0.81861114  0.57980719  0.11685734    -0.32360
H4929       H  0.82652647  0.58423099  0.13392765     0.29010
H4930       H  0.87422447  0.51711479  0.07793960     0.29010
H4931       H  0.88400592  0.56116974  0.10670810     0.19600
H4932       H  0.81844176  0.54369579  0.10302420     0.19610
C4933       C  0.89473108  0.60860781  0.17916743    -0.06230
C4934       C  0.88826692  0.59147663  0.18540627    -0.17350
C4935       C  0.89236416  0.58494402  0.20306429     0.10970
C4936       C  0.90293352  0.59588460  0.21503958    -0.06150
C4937       C  0.90929916  0.61306345  0.20892619    -0.17390
C4938       C  0.90540262  0.61954387  0.19115771     0.11000
S4939       S  0.88401004  0.56241097  0.20934377    -0.32350
S4940       S  0.91444030  0.64184249  0.18501482    -0.32360
H4941       H  0.90220912  0.64575582  0.17074033     0.29010
H4942       H  0.88276775  0.56566819  0.22837336     0.29010
H4943       H  0.88004829  0.58300911  0.17634813     0.19600
H4944       H  0.91769876  0.62134913  0.21798232     0.19610
C4945       C  0.90788950  0.64967712  0.03386302    -0.06230
C4946       C  0.89064512  0.65527642  0.04036442    -0.17350
C4947       C  0.88491871  0.65145739  0.05837303     0.10970
C4948       C  0.89631206  0.64096337  0.07021863    -0.06150
C4949       C  0.91359941  0.63525599  0.06364597    -0.17390
C4950       C  0.91949644  0.63952202  0.04566846     0.11000
S4951       S  0.86356228  0.66174726  0.06568463    -0.32350
S4952       S  0.94189508  0.63160607  0.03858559    -0.32360
H4953       H  0.93818438  0.63114636  0.01961349     0.29010
H4954       H  0.87027334  0.66728153  0.08295503     0.29010
H4955       H  0.88195591  0.66365783  0.03162099     0.19600
H4956       H  0.92250025  0.62721802  0.07247395     0.19610
C4957       C  0.85673090  0.13986304  0.18020821    -0.06230
C4958       C  0.83805934  0.13774798  0.18486048    -0.17350
C4959       C  0.83144441  0.14200001  0.20252170     0.10970
C4960       C  0.84361635  0.14903903  0.21590452    -0.06150
C4961       C  0.86229431  0.15063167  0.21146104    -0.17390
C4962       C  0.86895896  0.14626127  0.19396867     0.11000
S4963       S  0.80750528  0.13752919  0.20722870    -0.32350
S4964       S  0.89308645  0.15025889  0.19015754    -0.32360
H4965       H  0.88980086  0.16181080  0.17503651     0.29010
H4966       H  0.80968333  0.13450720  0.22622893     0.29010
H4967       H  0.82852344  0.13247716  0.17475135     0.19600
H4968       H  0.87174161  0.15623536  0.22148982     0.19610
C4969       C  0.89397303  0.18043827  0.10950452    -0.06230
C4970       C  0.88785142  0.18659150  0.09225882    -0.17350
C4971       C  0.89188617  0.20431141  0.08589819     0.10970
C4972       C  0.90226169  0.21631761  0.09702072    -0.06150
C4973       C  0.90817137  0.21030824  0.11438857    -0.17390
C4974       C  0.90405012  0.19256178  0.12077405     0.11000
S4975       S  0.88361767  0.21068393  0.06337337    -0.32350
S4976       S  0.91142031  0.18641128  0.14358558    -0.32360
H4977       H  0.89543512  0.17639055  0.14767812     0.29010
H4978       H  0.88201136  0.22961187  0.06691945     0.29010
H4979       H  0.87993520  0.17744627  0.08359638     0.19600
H4980       H  0.91623563  0.21943310  0.12292538     0.19610
C4981       C  0.89561683  0.06960260  0.13708379    -0.06230
C4982       C  0.91445543  0.06524036  0.13673435    -0.17350
C4983       C  0.92085305  0.04766763  0.14162488     0.10970
C4984       C  0.90825913  0.03403845  0.14762624    -0.06150
C4985       C  0.88946823  0.03816723  0.14743560    -0.17390
C4986       C  0.88299800  0.05546667  0.14205926     0.11000
S4987       S  0.94519141  0.04347833  0.13949755    -0.32350
S4988       S  0.85841739  0.05832534  0.14238852    -0.32360
H4989       H  0.85777983  0.06382072  0.12384422     0.29010
H4990       H  0.94362474  0.02448059  0.13629580     0.29010
H4991       H  0.92436486  0.07559743  0.13262072     0.19600
H4992       H  0.87965196  0.02789606  0.15201372     0.19610
C4993       C  0.78530098  0.90182927  0.09561534    -0.06230
C4994       C  0.79234939  0.88519417  0.08893043    -0.17350
C4995       C  0.81020893  0.87943714  0.09330427     0.10970
C4996       C  0.82129641  0.89059545  0.10472106    -0.06150
C4997       C  0.81416090  0.90726105  0.11131278    -0.17390
C4998       C  0.79645785  0.91307673  0.10675566     0.11000
S4999       S  0.81765657  0.85776302  0.08387421    -0.32350
S5000       S  0.78927806  0.93539381  0.11488958    -0.32360
H5001       H  0.77040538  0.93149526  0.11592496     0.29010
H5002       H  0.83102678  0.85384700  0.09707270     0.29010
H5003       H  0.78396111  0.87678017  0.07998662     0.19600
H5004       H  0.82257153  0.91597006  0.11996037     0.19610
C5005       C  0.71635790  0.90513595  0.09868342    -0.06230
C5006       C  0.70981800  0.91088045  0.11594183    -0.17350
C5007       C  0.69218146  0.90589119  0.12214177     0.10970
C5008       C  0.68064247  0.89533804  0.11065140    -0.06150
C5009       C  0.68738348  0.88936271  0.09358080    -0.17390
C5010       C  0.70504145  0.89399881  0.08754835     0.11000
S5011       S  0.68550614  0.91272409  0.14504015    -0.32350
S5012       S  0.71219338  0.88529227  0.06541069    -0.32360
H5013       H  0.73106857  0.88440478  0.06926123     0.29010
H5014       H  0.67541232  0.89669629  0.14903621     0.29010
H5015       H  0.71849287  0.91928515  0.12460953     0.19600
H5016       H  0.67876164  0.88100678  0.08479806     0.19610
C5017       C  0.65415798  0.96567628  0.90236522    -0.06230
C5018       C  0.66764303  0.95374162  0.89535541    -0.17350
C5019       C  0.66322638  0.93605108  0.88920238     0.10970
C5020       C  0.64484409  0.92976699  0.89037776    -0.06150
C5021       C  0.63132627  0.94197116  0.89705291    -0.17390
C5022       C  0.63577160  0.95963736  0.90320368     0.11000
S5023       S  0.68167400  0.92252548  0.87972242    -0.32350
S5024       S  0.61750387  0.97332861  0.91291151    -0.32360
H5025       H  0.62823752  0.98143447  0.92674198     0.29010
H5026       H  0.67167495  0.91737861  0.86401479     0.29010
H5027       H  0.68180130  0.95831724  0.89459894     0.19600
H5028       H  0.61715417  0.93753516  0.89814005     0.19610
C5029       C  0.65293805  0.03528500  0.90331828    -0.06230
C5030       C  0.66536275  0.04720307  0.89453365    -0.17350
C5031       C  0.66051118  0.06530425  0.89025544     0.10970
C5032       C  0.64270035  0.07171678  0.89458325    -0.06150
C5033       C  0.63018638  0.05981562  0.90326556    -0.17390
C5034       C  0.63515136  0.04172355  0.90779668     0.11000
S5035       S  0.67790981  0.07974948  0.87991202    -0.32350
S5036       S  0.61834771  0.02771073  0.91956754    -0.32360
H5037       H  0.63090308  0.01832328  0.93084818     0.29010
H5038       H  0.67208571  0.09618319  0.88826837     0.29010
H5039       H  0.67916521  0.04249203  0.89145726     0.19600
H5040       H  0.61644521  0.06461704  0.90645417     0.19610
C5041       C  0.84465077  0.10175333  0.03533823    -0.06230
C5042       C  0.84368307  0.08930208  0.05021331    -0.17350
C5043       C  0.84879797  0.09423067  0.06798252     0.10970
C5044       C  0.85564411  0.11197854  0.07126105    -0.06150
C5045       C  0.85711191  0.12447673  0.05654777    -0.17390
C5046       C  0.85123820  0.11976743  0.03875548     0.11000
S5047       S  0.84687724  0.07697180  0.08576289    -0.32350
S5048       S  0.85160616  0.13766518  0.02154618    -0.32360
H5049       H  0.83583728  0.13153512  0.01227402     0.29010
H5050       H  0.86327280  0.08174540  0.09473294     0.29010
H5051       H  0.83925790  0.07529731  0.04796515     0.19600
H5052       H  0.86237708  0.13818682  0.05906569     0.19610
C5053       C  0.77606538  0.03178436  0.00053909    -0.06230
C5054       C  0.78497202  0.03652750  0.01699216    -0.17350
C5055       C  0.80028563  0.04806598  0.01704986     0.10970
C5056       C  0.80503856  0.05815135  0.00095372    -0.06150
C5057       C  0.79536324  0.05431425  0.98470192    -0.17390
C5058       C  0.78224410  0.04031217  0.98398231     0.11000
S5059       S  0.81430995  0.04694994  0.03742712    -0.32350
S5060       S  0.77602226  0.03277052  0.96118872    -0.32360
H5061       H  0.77680223  0.01395516  0.96567515     0.29010
H5062       H  0.83105384  0.04807058  0.02772707     0.29010
H5063       H  0.78083623  0.03038749  0.02993670     0.19600
H5064       H  0.79863090  0.06154366  0.97206566     0.19610
C5065       C  0.69381165  0.00064747  0.94543155    -0.06230
C5066       C  0.70941972  0.98952385  0.94313504    -0.17350
C5067       C  0.72363182  0.98966145  0.95595534     0.10970
C5068       C  0.72231582  0.00125411  0.97143740    -0.06150
C5069       C  0.70678597  0.01235542  0.97382199    -0.17390
C5070       C  0.69235015  0.01189879  0.96124812     0.11000
S5071       S  0.74311929  0.97493339  0.95161188    -0.32350
S5072       S  0.67214662  0.02518080  0.96681929    -0.32360
H5073       H  0.65957132  0.01280801  0.95898295     0.29010
H5074       H  0.75624491  0.98616208  0.96016758     0.29010
H5075       H  0.71074507  0.98092959  0.93103439     0.19600
H5076       H  0.70563572  0.02096159  0.98593751     0.19610
C5077       C  0.75131828  0.94300952  0.05273423    -0.06230
C5078       C  0.76743803  0.95325040  0.04934476    -0.17350
C5079       C  0.76878239  0.96558243  0.03460356     0.10970
C5080       C  0.75273376  0.97061317  0.02477711    -0.06150
C5081       C  0.73650835  0.96066677  0.02847607    -0.17390
C5082       C  0.73613925  0.94604083  0.04094471     0.11000
S5083       S  0.79176814  0.97239768  0.02809136    -0.32350
S5084       S  0.71672760  0.93075023  0.03922668    -0.32360
H5085       H  0.72739160  0.91484639  0.04186539     0.29010
H5086       H  0.78791953  0.97367934  0.00916140     0.29010
H5087       H  0.77951601  0.95128278  0.05773169     0.19600
H5088       H  0.72393865  0.96374249  0.02121497     0.19610
C5089       C  0.86048920  0.10396925  0.92945519    -0.06230
C5090       C  0.86974307  0.08946804  0.93828947    -0.17350
C5091       C  0.86564934  0.08462823  0.95661016     0.10970
C5092       C  0.85203070  0.09448289  0.96635666    -0.06150
C5093       C  0.84277962  0.10887367  0.95751596    -0.17390
C5094       C  0.84655767  0.11347973  0.93920271     0.11000
S5095       S  0.87808321  0.06571053  0.96669702    -0.32350
S5096       S  0.83211636  0.13072440  0.92873884    -0.32360
H5097       H  0.83103648  0.12188068  0.91156417     0.29010
H5098       H  0.87594868  0.07119977  0.98511555     0.29010
H5099       H  0.88044612  0.08207651  0.93100371     0.19600
H5100       H  0.83181448  0.11600154  0.96470046     0.19610
C5101       C  0.89189514  0.10280217  0.82089333    -0.06230
C5102       C  0.87934325  0.09293593  0.81009629    -0.17350
C5103       C  0.88368275  0.08783055  0.79194773     0.10970
C5104       C  0.90091299  0.09279963  0.78441377    -0.06150
C5105       C  0.91336575  0.10271521  0.79521726    -0.17390
C5106       C  0.90912384  0.10766305  0.81330598     0.11000
S5107       S  0.86666874  0.07514368  0.77921431    -0.32350
S5108       S  0.92656957  0.11961570  0.82618990    -0.32360
H5109       H  0.92219518  0.11159997  0.84330368     0.29010
H5110       H  0.87884108  0.06590974  0.76737707     0.29010
H5111       H  0.86600802  0.08937824  0.81576107     0.19600
H5112       H  0.92673936  0.10625687  0.78961140     0.19610
C5113       C  0.93108345  0.14375478  0.88945735    -0.06230
C5114       C  0.94420109  0.13025078  0.89406398    -0.17350
C5115       C  0.96164799  0.13486360  0.90070267     0.10970
C5116       C  0.96671744  0.15353498  0.90231147    -0.06150
C5117       C  0.95386014  0.16706869  0.89722669    -0.17390
C5118       C  0.93628470  0.16247810  0.89085794     0.11000
S5119       S  0.97613613  0.11621000  0.90815299    -0.32350
S5120       S  0.92132263  0.18127529  0.88494347    -0.32360
H5121       H  0.91731329  0.17418696  0.86740492     0.29010
H5122       H  0.98285883  0.12541252  0.92373633     0.29010
H5123       H  0.94064127  0.11581295  0.89322161     0.19600
H5124       H  0.95755520  0.18147029  0.89825718     0.19610
C5125       C  0.84685903  0.21500931  0.65237842    -0.06230
C5126       C  0.85046329  0.20106483  0.66533076    -0.17350
C5127       C  0.85437319  0.18309223  0.65986340     0.10970
C5128       C  0.85555297  0.17891101  0.64097548    -0.06150
C5129       C  0.85247762  0.19278549  0.62792473    -0.17390
C5130       C  0.84775425  0.21066570  0.63338113     0.11000
S5131       S  0.85763599  0.16607596  0.67767965    -0.32350
S5132       S  0.84226853  0.22690882  0.61543804    -0.32360
H5133       H  0.82748999  0.23502145  0.62494305     0.29010
H5134       H  0.85096911  0.15104832  0.66758620     0.29010
H5135       H  0.84981055  0.20410516  0.67991982     0.19600
H5136       H  0.85356002  0.18960863  0.61338837     0.19610
C5137       C  0.84801282  0.28465701  0.65319691    -0.06230
C5138       C  0.83626771  0.29588198  0.64283400    -0.17350
C5139       C  0.84109994  0.31391851  0.63830224     0.10970
C5140       C  0.85827279  0.32093880  0.64392335    -0.06150
C5141       C  0.87011151  0.30972661  0.65422175    -0.17390
C5142       C  0.86511686  0.29170506  0.65902826     0.11000
S5143       S  0.82437792  0.32752421  0.62603792    -0.32350
S5144       S  0.88099467  0.27858546  0.67280725    -0.32360
H5145       H  0.86766767  0.26869562  0.68279058     0.29010
H5146       H  0.82872054  0.34425959  0.63465852     0.29010
H5147       H  0.82294766  0.29069156  0.63870756     0.19600
H5148       H  0.88335235  0.31500760  0.65846341     0.19610
C5149       C  0.71628919  0.15381408  0.84717678    -0.06230
C5150       C  0.70285167  0.15080047  0.83361708    -0.17350
C5151       C  0.68485359  0.14579974  0.83815718     0.10970
C5152       C  0.68013593  0.14226655  0.85673414    -0.06150
C5153       C  0.69374120  0.14468388  0.87028453    -0.17390
C5154       C  0.71146346  0.15086877  0.86582518     0.11000
S5155       S  0.66850728  0.14538382  0.81961330    -0.32350
S5156       S  0.72666323  0.15581579  0.88470909    -0.32360
H5157       H  0.73470719  0.17138048  0.87643716     0.29010
H5158       H  0.65578818  0.15667127  0.82888661     0.29010
H5159       H  0.70623296  0.15299302  0.81923289     0.19600
H5160       H  0.69042686  0.14229318  0.88465222     0.19610
C5161       C  0.78636459  0.15324699  0.84639079    -0.06230
C5162       C  0.79972509  0.16673550  0.85004587    -0.17350
C5163       C  0.81765395  0.16209934  0.85517576     0.10970
C5164       C  0.82241223  0.14341941  0.85789058    -0.06150
C5165       C  0.80885453  0.12994101  0.85468465    -0.17390
C5166       C  0.79119809  0.13455759  0.84856350     0.11000
S5167       S  0.83379852  0.18073904  0.85713793    -0.32350
S5168       S  0.77604936  0.11586259  0.84270773    -0.32360
H5169       H  0.76808566  0.12475225  0.82748352     0.29010
H5170       H  0.84655086  0.17264707  0.84499639     0.29010
H5171       H  0.79630307  0.18114871  0.84834845     0.19600
H5172       H  0.81214551  0.11551148  0.85641529     0.19610
C5173       C  0.65348089  0.34656693  0.71576664    -0.06230
C5174       C  0.63500521  0.34407095  0.71087689    -0.17350
C5175       C  0.62873564  0.34844056  0.69312871     0.10970
C5176       C  0.64137211  0.35513648  0.67983824    -0.06150
C5177       C  0.65967235  0.35807034  0.68488984    -0.17390
C5178       C  0.66580106  0.35413478  0.70264934     0.11000
S5179       S  0.60444387  0.34562005  0.68887167    -0.32350
S5180       S  0.68942404  0.35960662  0.70778390    -0.32360
H5181       H  0.68638015  0.36365296  0.72647622     0.29010
H5182       H  0.60355313  0.35297439  0.67104987     0.29010
H5183       H  0.62545148  0.33840559  0.72087409     0.19600
H5184       H  0.66925035  0.36381618  0.67494488     0.19610
C5185       C  0.65362775  0.34687778  0.78577859    -0.06230
C5186       C  0.65251393  0.33433887  0.80061157    -0.17350
C5187       C  0.64800245  0.34001645  0.81843770     0.10970
C5188       C  0.64371323  0.35859659  0.82167198    -0.06150
C5189       C  0.64408473  0.37110624  0.80697096    -0.17390
C5190       C  0.64955951  0.36565512  0.78926852     0.11000
S5191       S  0.64804146  0.32286157  0.83645962    -0.32350
S5192       S  0.65233761  0.38368582  0.77240363    -0.32360
H5193       H  0.66858435  0.37642472  0.76479799     0.29010
H5194       H  0.63366182  0.33046048  0.84693004     0.29010
H5195       H  0.65522194  0.31986953  0.79837421     0.19600
H5196       H  0.64076853  0.38541969  0.80947959     0.19610
C5197       C  0.72290298  0.27818975  0.75008335    -0.06230
C5198       C  0.72530024  0.29350664  0.76143173    -0.17350
C5199       C  0.71266849  0.30795500  0.76132843     0.10970
C5200       C  0.69672963  0.30662635  0.75028120    -0.06150
C5201       C  0.69450604  0.29120558  0.73886606    -0.17390
C5202       C  0.70748705  0.27711279  0.73849543     0.11000
S5203       S  0.71842463  0.32803514  0.77464540    -0.32350
S5204       S  0.70370465  0.25833430  0.72275596    -0.32360
H5205       H  0.71280134  0.24474844  0.73304365     0.29010
H5206       H  0.71038857  0.34071822  0.76243851     0.29010
H5207       H  0.73745532  0.29448183  0.76994973     0.19600
H5208       H  0.68240496  0.28997173  0.73031955     0.19610
C5209       C  0.75126391  0.22287114  0.77810718    -0.06230
C5210       C  0.73850595  0.20853990  0.77699222    -0.17350
C5211       C  0.73863784  0.19411150  0.78970360     0.10970
C5212       C  0.75128003  0.19446507  0.80449152    -0.06150
C5213       C  0.76407624  0.20890996  0.80547727    -0.17390
C5214       C  0.76429352  0.22300629  0.79239245     0.11000
S5215       S  0.72310354  0.17526470  0.78546811    -0.32350
S5216       S  0.78153013  0.24069045  0.79466558    -0.32360
H5217       H  0.77127908  0.25497500  0.78665809     0.29010
H5218       H  0.73493560  0.16153107  0.79218623     0.29010
H5219       H  0.72878485  0.20828283  0.76572553     0.19600
H5220       H  0.77381538  0.20939896  0.81670807     0.19610
C5221       C  0.77822294  0.25042921  0.72158303    -0.06230
C5222       C  0.77602520  0.23856386  0.70662880    -0.17350
C5223       C  0.78848099  0.23870408  0.69195484     0.10970
C5224       C  0.80405388  0.25037438  0.69267987    -0.06150
C5225       C  0.80606300  0.26231887  0.70773242    -0.17390
C5226       C  0.79325247  0.26260096  0.72205620     0.11000
S5227       S  0.78297208  0.22453178  0.67238851    -0.32350
S5228       S  0.79677241  0.27891421  0.74039425    -0.32360
H5229       H  0.78839538  0.26852499  0.75444000     0.29010
H5230       H  0.79054323  0.23654476  0.65917506     0.29010
H5231       H  0.76415812  0.22957175  0.70611680     0.19600
H5232       H  0.81790094  0.27131171  0.70853817     0.19610
loop_ 
_geom_bond_atom_site_label_1 
_geom_bond_atom_site_label_2 
_geom_bond_distance 
_geom_bond_site_symmetry_2 
_ccdc_geom_bond_type 
C1            C2   1.399       .  A
C1            C6   1.398       .  A
C1         C5221   1.464       .  S
C2            C3   1.399       .  A
C2            H7   1.084       .  S
C3            C4   1.399       .  A
C3         C5209   1.465       .  S
C4            C5   1.399       .  A
C4            H8   1.084       .  S
C5            C6   1.398       .  A
C5         C5197   1.463       .  S
C6            H9   1.084       .  S
C10          C11   1.407       .  A
C10          C15   1.414       .  A
C10        C5185   1.499       .  S
C11          C12   1.399       .  A
C11          H16   1.082       .  S
C12          C13   1.397       .  A
C12        C5200   1.482       .  S
C13          C14   1.399       .  A
C13          H17   1.084       .  S
C14          C15   1.409       .  A
C14        C5173   1.484       .  S
C15          H18   1.082       .  S
C19          C20   1.403       .  A
C19          C24   1.413       .  A
C19        C5161   1.492       .  S
C20          C21   1.399       .  A
C20          H25   1.084       .  S
C21          C22   1.397       .  A
C21        C5212   1.482       .  S
C22          C23   1.403       .  A
C22          H26   1.083       .  S
C23          C24   1.412       .  A
C23        C5149   1.493       .  S
C24          H27   1.082       .  S
C28          C29   1.399       .  A
C28          C33   1.407       .  A
C28        C5137   1.477       .  S
C29          C30   1.399       .  A
C29          H34   1.084       .  S
C30          C31   1.399       .  A
C30        C5224   1.482       .  S
C31          C32   1.404       .  A
C31          H35   1.083       .  S
C32          C33   1.410       .  A
C32        C5125   1.488       .  S
C33          H36   1.083       .  S
O37          C40   1.272       .  A
O37         Cd42   2.486       .  S
C38        C5113   1.497       .  S
C38          O47   1.267       .  A
C38          O43   1.273       .  A
O39          C45   1.273       .  A
O39         Cd42   2.503       .  S
C40        C5164   1.494       .  S
C40          O48   1.266       .  A
C41        C5101   1.475       .  S
C41          O46   1.273       .  A
C41          O44   1.266       .  A
Cd42         O49   2.414       .  S
Cd42         O48   2.431       .  S
Cd42         O47   2.432       .  S
Cd42         O43   2.492       .  S
Cd42         O46   2.486       .  S
Cd42         O44   2.420       .  S
C45        C5089   1.483       .  S
C45          O49   1.265       .  A
C50          C51   1.406   1_554  A
C50          C55   1.409   1_565  A
C50        C5080   1.502       .  S
C51          C52   1.396   1_565  A
C51          H56   1.082       .  S
C52          C53   1.396       .  A
C52        C5068   1.468       .  S
C53          C54   1.401   1_556  A
C53          H57   1.082       .  S
C54          C55   1.412       .  A
C54        C5053   1.499       .  S
C55          H58   1.074       .  S
C59          C60   1.400       .  A
C59          C64   1.406   1_556  A
C59        C5092   1.479       .  S
C60          C61   1.407   1_556  A
C60          H65   1.082       .  S
C61          C62   1.403       .  A
C61        C5056   1.498       .  S
C62          C63   1.405       .  A
C62          H66   1.082       .  S
C63          C64   1.410       .  A
C63        C5041   1.496       .  S
C64          H67   1.082       .  S
C68          C69   1.408       .  A
C68          C73   1.399       .  A
C68        C5029   1.479       .  S
C69          C70   1.410   1_545  A
C69          H74   1.083       .  S
C70          C71   1.401       .  A
C70        C5017   1.483       .  S
C71          C72   1.400   1_565  A
C71          H75   1.084       .  S
C72          C73   1.398       .  A
C72        C5065   1.479       .  S
C73          H76   1.084       .  S
C77          C78   1.398       .  A
C77          C82   1.404       .  A
C77        C4993   1.475       .  S
C78          C79   1.407       .  A
C78          H83   1.082       .  S
C79          C80   1.409       .  A
C79        C5077   1.501       .  S
C80          C81   1.403       .  A
C80          H84   1.081       .  S
C81          C82   1.404       .  A
C81        C5005   1.480       .  S
C82          H85   1.083       .  S
O86          C89   1.275       .  A
O86         Cd91   2.492       .  S
C87        C4981   1.498       .  S
C87          O96   1.263       .  A
C87          O92   1.275       .  A
O88          C94   1.274       .  A
O88         Cd91   2.491       .  S
C89        C4969   1.477       .  S
C89          O97   1.266       .  A
C90        C5044   1.471       .  S
C90          O95   1.273       .  A
C90          O93   1.266       .  A
Cd91         O98   2.418       .  S
Cd91         O97   2.413       .  S
Cd91         O96   2.415       .  S
Cd91         O92   2.512       .  S
Cd91         O95   2.467       .  S
Cd91         O93   2.428       .  S
C94        C4957   1.492       .  S
C94          O98   1.265       .  A
O99         C102   1.273       .  A
O99        Cd104   2.481       .  S
C100       C4909   1.486       .  S
C100        O109   1.265       .  A
C100        O105   1.273       .  A
O101        C107   1.274       .  A
O101       Cd104   2.496       .  S
C102       C4921   1.494       .  S
C102        O110   1.267       .  A
C103       C4948   1.490       .  S
C103        O108   1.274       .  A
C103        O106   1.265       .  A
Cd104       O111   2.424       .  S
Cd104       O110   2.425       .  S
Cd104       O109   2.425       .  S
Cd104       O105   2.506       .  S
Cd104       O108   2.509       .  S
Cd104       O106   2.419       .  S
C107       C4933   1.479       .  S
C107        O111   1.266       .  A
O112        C115   1.273       .  A
O112       Cd117   2.478       .  S
C113       C5152   1.490       .  S
C113        O122   1.268       .  A
C113        O118   1.273       .  A
O114        C120   1.275       .  A
O114       Cd117   2.482       .  S
C115       C4885   1.478       .  S
C115        O123   1.267       .  A
C116       C5032   1.473       .  S
C116        O121   1.274       .  A
C116        O119   1.266       .  A
Cd117       O124   2.406       .  S
Cd117       O123   2.411       .  S
Cd117       O122   2.422       .  S
Cd117       O118   2.463       .  S
Cd117       O121   2.482       .  S
Cd117       O119   2.412       .  S
C120       C4897   1.490       .  S
C120        O124   1.264       .  A
C125        C126   1.403       .  A
C125        C130   1.407       .  A
C125       C4849   1.489       .  S
C126        C127   1.410       .  A
C126        H131   1.079       .  S
C127        C128   1.406       .  A
C127       C4873   1.501       .  S
C128        C129   1.398       .  A
C128        H132   1.081       .  S
C129        C130   1.402       .  A
C129       C4861   1.477       .  S
C130        H133   1.084       .  S
C134        C135   1.399       .  A
C134        C139   1.403       .  A
C134       C4828   1.476       .  S
C135        C136   1.410       .  A
C135        H140   1.081       .  S
C136        C137   1.408       .  A
C136       C4837   1.503       .  S
C137        C138   1.399       .  A
C137        H141   1.080       .  S
C138        C139   1.404       .  A
C138       C4813   1.477       .  S
C139        H142   1.083       .  S
C143        C144   1.404       .  A
C143        C148   1.404       .  A
C143       C4789   1.489       .  S
C144        C145   1.409       .  A
C144        H149   1.080       .  S
C145        C146   1.404       .  A
C145       C4801   1.501       .  S
C146        C147   1.399       .  A
C146        H150   1.080       .  S
C147        C148   1.403       .  A
C147       C4777   1.478       .  S
C148        H151   1.083       .  S
C152        C153   1.403       .  A
C152        C157   1.406       .  A
C152       C4804   1.501       .  S
C153        C154   1.403       .  A
C153        H158   1.074       .  S
C154        C155   1.407       .  A
C154       C4876   1.503       .  S
C155        C156   1.407       .  A
C155        H159   1.076       .  S
C156        C157   1.403       .  A
C156       C4840   1.505       .  S
C157        H160   1.076       .  S
C161        C162   1.398       .  A
C161        C166   1.395       .  A
C161       C4741   1.467       .  S
C162        C163   1.410       .  A
C162        H167   1.082       .  S
C163        C164   1.409       .  A
C163       C4765   1.496       .  S
C164        C165   1.400       .  A
C164        H168   1.081       .  S
C165        C166   1.395       .  A
C165       C4753   1.467       .  S
C166        H169   1.084       .  S
C170        C171   1.405       .  A
C170        C175   1.407       .  A
C170       C4717   1.486       .  S
C171        C172   1.406       .  A
C171        H176   1.083       .  S
C172        C173   1.401       .  A
C172       C4756   1.486       .  S
C173        C174   1.398       .  A
C173        H177   1.084       .  S
C174        C175   1.405       .  A
C174       C4729   1.478       .  S
C175        H178   1.084       .  S
C179        C180   1.398       .  A
C179        C184   1.406       .  A
C179       C4705   1.477       .  S
C180        C181   1.402       .  A
C180        H185   1.084       .  S
C181        C182   1.402       .  A
C181       C4744   1.481       .  S
C182        C183   1.400       .  A
C182        H186   1.083       .  S
C183        C184   1.407       .  A
C183       C4693   1.476       .  S
C184        H187   1.083       .  S
C188        C189   1.401       .  A
C188        C193   1.406       .  A
C188       C4669   1.486       .  S
C189        C190   1.405       .  A
C189        H194   1.081       .  S
C190        C191   1.407       .  A
C190       C4768   1.495       .  S
C191        C192   1.402       .  A
C191        H195   1.082       .  S
C192        C193   1.406       .  A
C192       C4684   1.485       .  S
C193        H196   1.084       .  S
O197        C200   1.275       .  A
O197       Cd202   2.483       .  S
C198       C4633   1.483       .  S
C198        O207   1.266       .  A
C198        O203   1.275       .  A
O199        C205   1.273       .  A
O199       Cd202   2.475       .  S
C200       C4645   1.488       .  S
C200        O208   1.264       .  A
C201       C4624   1.488       .  S
C201        O206   1.275       .  A
C201        O204   1.265       .  A
Cd202       O209   2.425       .  S
Cd202       O208   2.395       .  S
Cd202       O207   2.395       .  S
Cd202       O203   2.475       .  S
Cd202       O206   2.486       .  S
Cd202       O204   2.413       .  S
C205       C4657   1.471       .  S
C205        O209   1.265       .  A
C210        C211   1.407       .  A
C210        C215   1.399       .  A
C210       C4597   1.475       .  S
C211        C212   1.410   1_556  A
C211        H216   1.083   1_556  S
C212        C213   1.402       .  A
C212       C4585   1.483       .  S
C213        C214   1.396   1_554  A
C213        H217   1.084       .  S
C214        C215   1.397       .  A
C214       C4612   1.465       .  S
C215        H218   1.084       .  S
C219        C220   1.404       .  A
C219        C224   1.411       .  A
C219       C4549   1.486       .  S
C220        C221   1.396       .  A
C220        H225   1.084       .  S
C221        C222   1.397       .  A
C221       C4573   1.468       .  S
C222        C223   1.400       .  A
C222        H226   1.084       .  S
C223        C224   1.405       .  A
C223       C4561   1.475       .  S
C224        H227   1.083       .  S
C228        C229   1.397       .  A
C228        C233   1.404   1_556  A
C228       C4609   1.474       .  S
C229        C230   1.395   1_565  A
C229        H234   1.084   1_565  S
C230        C231   1.399       .  A
C230       C4576   1.471       .  S
C231        C232   1.411   1_546  A
C231        H235   1.082       .  S
C232        C233   1.410       .  A
C232       C4540   1.503       .  S
C233        H236   1.080       .  S
C237        C238   1.400       .  A
C237        C242   1.403       .  A
C237       C4528   1.481       .  S
C238        C239   1.405       .  A
C238        H243   1.081       .  S
C239        C240   1.409   1_545  A
C239       C4537   1.497       .  S
C240        C241   1.402       .  A
C240        H244   1.081       .  S
C241        C242   1.403   1_565  A
C241       C4648   1.485       .  S
C242        H245   1.084       .  S
O246        C249   1.274       .  A
O246       Cd251   2.483       .  S
C247       C4732   1.486       .  S
C247        O256   1.266       .  A
C247        O252   1.274       .  A
O248        C254   1.274       .  A
O248       Cd251   2.506       .  S
C249       C4600   1.478       .  S
C249        O257   1.267       .  A
C250       C4501   1.492       .  S
C250        O255   1.275       .  A
C250        O253   1.266       .  A
Cd251       O258   2.412       .  S
Cd251       O257   2.414       .  S
Cd251       O256   2.410       .  S
Cd251       O252   2.486       .  S
Cd251       O255   2.478       .  S
Cd251       O253   2.424       .  S
C254       C4513   1.495       .  S
C254        O258   1.264       .  A
C259        C260   1.398       .  A
C259        C264   1.406       .  A
C259       C4480   1.474       .  S
C260        C261   1.400       .  A
C260        H265   1.084       .  S
C261        C262   1.397   1_455  A
C261       C4489   1.473       .  S
C262        C263   1.399       .  A
C262        H266   1.084       .  S
C263        C264   1.408   1_655  A
C263       C4468   1.481       .  S
C264        H267   1.083       .  S
C268        C269   1.407   1_565  A
C268        C273   1.401       .  A
C268       C4504   1.481       .  S
C269        C270   1.412       .  A
C269        H274   1.083       .  S
C270        C271   1.399       .  A
C270       C4441   1.488       .  S
C271        C272   1.398   1_545  A
C271        H275   1.083       .  S
C272        C273   1.402       .  A
C272       C4453   1.480       .  S
C273        H276   1.084       .  S
C277        C278   1.411   1_545  A
C277        C282   1.410   1_655  A
C277       C4429   1.496       .  S
C278        C279   1.395   1_655  A
C278        H283   1.082       .  S
C279        C280   1.390       .  A
C279       C4492   1.461       .  S
C280        C281   1.392   1_565  A
C280        H284   1.085       .  S
C281        C282   1.401       .  A
C281       C4456   1.463       .  S
C282        H285   1.081       .  S
C286        C287   1.405       .  A
C286        C291   1.400       .  A
C286       C5104   1.478       .  S
C287        C288   1.406       .  A
C287        H292   1.083       .  S
C288        C289   1.404       .  A
C288       C4417   1.483       .  S
C289        C290   1.407       .  A
C289        H293   1.081       .  S
C290        C291   1.407       .  A
C290       C4432   1.501       .  S
C291        H294   1.082       .  S
O295        C298   1.273       .  A
O295       Cd300   2.500       .  S
C296       C4564   1.486       .  S
C296        O305   1.268       .  A
C296        O301   1.273       .  A
O297        C303   1.273       .  A
O297       Cd300   2.499       .  S
C298       C4408   1.475       .  S
C298        O306   1.264       .  A
C299       C4396   1.484       .  S
C299        O304   1.275       .  A
C299        O302   1.266       .  A
Cd300       O307   2.444       .  S
Cd300       O306   2.423       .  S
Cd300       O305   2.443       .  S
Cd300       O301   2.501       .  S
Cd300       O304   2.499       .  S
Cd300       O302   2.415       .  S
C303       C4444   1.478       .  S
C303        O307   1.265       .  A
O308        C311   1.272       .  A
O308       Cd313   2.476       .  S
C309       C4792   1.490       .  S
C309        O318   1.267       .  A
C309        O314   1.272       .  A
O310        C316   1.274       .  A
O310       Cd313   2.493       .  S
C311       C4525   1.485       .  S
C311        O319   1.267       .  A
C312       C4369   1.491       .  S
C312        O317   1.275       .  A
C312        O315   1.263       .  A
Cd313       O320   2.406       .  S
Cd313       O319   2.406       .  S
Cd313       O318   2.406       .  S
Cd313       O314   2.471       .  S
Cd313       O317   2.494       .  S
Cd313       O315   2.400       .  S
C316       C4381   1.492       .  S
C316        O320   1.264       .  A
O321        C324   1.274       .  A
O321       Cd326   2.488       .  S
C322       C4348   1.492       .  S
C322        O331   1.267       .  A
C322        O327   1.273       .  A
O323        C329   1.273       .  A
O323       Cd326   2.499       .  S
C324       C4336   1.477       .  S
C324        O332   1.266       .  A
C325       C5008   1.479       .  S
C325        O330   1.274       .  A
C325        O328   1.267       .  A
Cd326       O333   2.420       .  S
Cd326       O332   2.414       .  S
Cd326       O331   2.422       .  S
Cd326       O327   2.480       .  S
Cd326       O330   2.490       .  S
Cd326       O328   2.421       .  S
C329       C4357   1.477       .  S
C329        O333   1.265       .  A
O334        C337   1.274       .  A
O334       Cd339   2.487       .  S
C335       C5020   1.491       .  S
C335        O344   1.266       .  A
C335        O340   1.273       .  A
O336        C342   1.273       .  A
O336       Cd339   2.483       .  S
C337       C4309   1.473       .  S
C337        O345   1.266       .  A
C338       C4297   1.472       .  S
C338        O343   1.272       .  A
C338        O341   1.265       .  A
Cd339       O346   2.418       .  S
Cd339       O345   2.414       .  S
Cd339       O344   2.420       .  S
Cd339       O340   2.490       .  S
Cd339       O343   2.487       .  S
Cd339       O341   2.421       .  S
C342       C4321   1.490       .  S
C342        O346   1.267       .  A
C347        C348   1.404       .  A
C347        C352   1.400       .  A
C347       C4273   1.485       .  S
C348        C349   1.405       .  A
C348        H353   1.084       .  S
C349        C350   1.402       .  A
C349       C4636   1.480       .  S
C350        C351   1.405       .  A
C350        H354   1.081       .  S
C351        C352   1.408       .  A
C351       C4285   1.496       .  S
C352        H355   1.082       .  S
C356        C357   1.399       .  A
C356        C361   1.396   1_554  A
C356       C4261   1.469       .  S
C357        C358   1.410       .  A
C357        H362   1.082       .  S
C358        C359   1.409   1_554  A
C358       C4288   1.499       .  S
C359        C360   1.402       .  A
C359        H363   1.081       .  S
C360        C361   1.397       .  A
C360       C4249   1.475       .  S
C361        H364   1.084       .  S
C365        C366   1.399       .  A
C365        C370   1.410       .  A
C365       C4237   1.478       .  S
C366        C367   1.394       .  A
C366        H371   1.084       .  S
C367        C368   1.394       .  A
C367       C4252   1.466       .  S
C368        C369   1.405       .  A
C368        H372   1.084       .  S
C369        C370   1.414       .  A
C369       C4225   1.496       .  S
C370        H373   1.082       .  S
C374        C375   1.408   1_556  A
C374        C379   1.401       .  A
C374       C4300   1.485       .  S
C375        C376   1.410       .  A
C375        H380   1.083       .  S
C376        C377   1.402       .  A
C376       C4345   1.484       .  S
C377        C378   1.400       .  A
C377        H381   1.083       .  S
C378        C379   1.400   1_554  A
C378       C4264   1.485       .  S
C379        H382   1.084       .  S
C383        C384   1.412       .  A
C383        C388   1.404       .  A
C383       C4201   1.491       .  S
C384        C385   1.409       .  A
C384        H389   1.083       .  S
C385        C386   1.399       .  A
C385       C4312   1.481       .  S
C386        C387   1.398       .  A
C386        H390   1.084       .  S
C387        C388   1.401       .  A
C387       C4213   1.480       .  S
C388        H391   1.082       .  S
C392        C393   1.401       .  A
C392        C397   1.412       .  A
C392       C4165   1.491       .  S
C393        C394   1.399       .  A
C393        H398   1.083       .  S
C394        C395   1.400       .  A
C394       C4189   1.482       .  S
C395        C396   1.403       .  A
C395        H399   1.083       .  S
C396        C397   1.411       .  A
C396       C4177   1.491       .  S
C397        H400   1.082       .  S
C401        C402   1.402       .  A
C401        C406   1.405       .  A
C401       C4141   1.484       .  S
C402        C403   1.406       .  A
C402        H407   1.081       .  S
C403        C404   1.407       .  A
C403       C4153   1.495       .  S
C404        C405   1.400       .  A
C404        H408   1.081       .  S
C405        C406   1.405       .  A
C405       C4129   1.484       .  S
C406        H409   1.084       .  S
C410        C411   1.394       .  A
C410        C415   1.398       .  A
C410       C4216   1.466       .  S
C411        C412   1.394       .  A
C411        H416   1.084       .  S
C412        C413   1.399       .  A
C412       C4192   1.467       .  S
C413        C414   1.408       .  A
C413        H417   1.081       .  S
C414        C415   1.410       .  A
C414       C4156   1.495       .  S
C415        H418   1.082       .  S
C419        C420   1.415       .  A
C419        C424   1.406       .  A
C419       C4660   1.496       .  S
C420        C421   1.410       .  A
C420        H425   1.082       .  S
C421        C422   1.399       .  A
C421       C4360   1.482       .  S
C422        C423   1.396       .  A
C422        H426   1.084       .  S
C423        C424   1.397       .  A
C423       C4117   1.480       .  S
C424        H427   1.083       .  S
C428        C429   1.399       .  A
C428        C433   1.394       .  A
C428       C4120   1.465       .  S
C429        C430   1.408   1_565  A
C429        H434   1.081       .  S
C430        C431   1.412       .  A
C430       C4105   1.497       .  S
C431        C432   1.399   1_545  A
C431        H435   1.082       .  S
C432        C433   1.394       .  A
C432       C4096   1.467   1_565  S
C433        H436   1.084       .  S
C437        C438   1.405       .  A
C437        C442   1.408       .  A
C437       C4384   1.492       .  S
C438        C439   1.410       .  A
C438        H443   1.080       .  S
C439        C440   1.405       .  A
C439       C4108   1.499       .  S
C440        C441   1.398       .  A
C440        H444   1.082       .  S
C441        C442   1.402       .  A
C441       C4081   1.476       .  S
C442        H445   1.084       .  S
C446        C447   1.406       .  A
C446        C451   1.412       .  A
C446       C4057   1.493       .  S
C447        C448   1.400       .  A
C447        H452   1.082       .  S
C448        C449   1.399   1_545  A
C448       C4093   1.484       .  S
C449        C450   1.399       .  A
C449        H453   1.084       .  S
C450        C451   1.407   1_565  A
C450       C4069   1.481       .  S
C451        H454   1.083       .  S
O455        C458   1.273       .  A
O455       Cd460   2.484       .  S
C456       C4045   1.472       .  S
C456        O465   1.265       .  A
C456        O461   1.273       .  A
O457        C463   1.273       .  A
O457       Cd460   2.484       .  S
C458       C4009   1.472       .  S
C458        O466   1.265       .  A
C459       C4033   1.469       .  S
C459        O464   1.273       .  A
C459        O462   1.266       .  A
Cd460       O467   2.422       .  S
Cd460       O466   2.426       .  S
Cd460       O465   2.431       .  S
Cd460       O461   2.481       .  S
Cd460       O464   2.473       .  S
Cd460       O462   2.424       .  S
C463       C4021   1.471       .  S
C463        O467   1.265       .  A
O468        C471   1.273       .  A
O468       Cd473   2.477       .  S
C469       C4681   1.487       .  S
C469        O478   1.265       .  A
C469        O474   1.275       .  A
O470        C476   1.274       .  A
O470       Cd473   2.479       .  S
C471       C3973   1.472       .  S
C471        O479   1.266       .  A
C472       C3985   1.484       .  S
C472        O477   1.275       .  A
C472        O475   1.265       .  A
Cd473       O480   2.414       .  S
Cd473       O479   2.432       .  S
Cd473       O478   2.410       .  S
Cd473       O474   2.488       .  S
Cd473       O477   2.489       .  S
Cd473       O475   2.409       .  S
C476       C3997   1.485       .  S
C476        O480   1.267       .  A
C481        C482   1.401   1_455  A
C481        C486   1.401       .  A
C481       C3961   1.482       .  S
C482        C483   1.407       .  A
C482        H487   1.082       .  S
C483        C484   1.405   1_655  A
C483       C3952   1.500       .  S
C484        C485   1.408       .  A
C484        H488   1.076       .  S
C485        C486   1.403       .  A
C485       C3940   1.500       .  S
C486        H489   1.082       .  S
C490        C491   1.401       .  A
C490        C495   1.406       .  A
C490       C4024   1.485       .  S
C491        C492   1.407       .  A
C491        H496   1.082       .  S
C492        C493   1.404       .  A
C492       C3937   1.496       .  S
C493        C494   1.402       .  A
C493        H497   1.080       .  S
C494        C495   1.408       .  A
C494       C3925   1.484       .  S
C495        H498   1.083       .  S
C499        C500   1.407       .  A
C499        C504   1.416       .  A
C499       C3904   1.507       .  S
C500        C501   1.403       .  A
C500        H505   1.079       .  S
C501        C502   1.403       .  A
C501       C3949   1.501       .  S
C502        C503   1.408       .  A
C502        H506   1.082       .  S
C503        C504   1.416       .  A
C503       C3913   1.506       .  S
C504        H507   1.081       .  S
C508        C509   1.401       .  A
C508        C513   1.413   1_655  A
C508       C3889   1.485       .  S
C509        C510   1.394   1_655  A
C509        H514   1.084       .  S
C510        C511   1.395       .  A
C510       C3964   1.470       .  S
C511        C512   1.405       .  A
C511        H515   1.084       .  S
C512        C513   1.416       .  A
C512       C3976   1.495       .  S
C513        H516   1.082       .  S
C517        C518   1.411       .  A
C517        C522   1.404       .  A
C517       C3865   1.493       .  S
C518        C519   1.410       .  A
C518        H523   1.083       .  S
C519        C520   1.401       .  A
C519       C4924   1.485       .  S
C520        C521   1.399       .  A
C520        H524   1.084       .  S
C521        C522   1.400       .  A
C521       C3880   1.484       .  S
C522        H525   1.082       .  S
C526        C527   1.400       .  A
C526        C531   1.399   1_554  A
C526       C3853   1.467       .  S
C527        C528   1.399       .  A
C527        H532   1.084       .  S
C528        C529   1.398   1_554  A
C528       C3877   1.465       .  S
C529        C530   1.401       .  A
C529        H533   1.084       .  S
C530        C531   1.402       .  A
C530       C3841   1.477       .  S
C531        H534   1.084       .  S
C535        C536   1.402       .  A
C535        C540   1.412       .  A
C535       C3829   1.487       .  S
C536        C537   1.394       .  A
C536        H541   1.084       .  S
C537        C538   1.394       .  A
C537       C3844   1.464       .  S
C538        C539   1.402       .  A
C538        H542   1.084       .  S
C539        C540   1.412       .  A
C539       C3817   1.490       .  S
C540        H543   1.083       .  S
C544        C545   1.403       .  A
C544        C549   1.409   1_556  A
C544       C3805   1.487       .  S
C545        C546   1.402   1_556  A
C545        H550   1.083       .  S
C546        C547   1.401       .  A
C546       C3856   1.486       .  S
C547        C548   1.401       .  A
C547        H551   1.084       .  S
C548        C549   1.407       .  A
C548       C3796   1.483       .  S
C549        H552   1.083       .  S
O553        C556   1.272       .  A
O553       Cd558   2.472       .  S
C554       C4180   1.494       .  S
C554        O563   1.267       .  A
C554        O559   1.272       .  A
O555        C561   1.273       .  A
O555       Cd558   2.501       .  S
C556       C3781   1.471       .  S
C556        O564   1.265       .  A
C557       C3832   1.492       .  S
C557        O562   1.276       .  A
C557        O560   1.265       .  A
Cd558       O565   2.418       .  S
Cd558       O564   2.427       .  S
Cd558       O563   2.429       .  S
Cd558       O559   2.476       .  S
Cd558       O562   2.479       .  S
Cd558       O560   2.408       .  S
C561       C3892   1.475       .  S
C561        O565   1.264       .  A
O566        C569   1.273       .  A
O566       Cd571   2.484       .  S
C567       C3733   1.492       .  S
C567        O576   1.266       .  A
C567        O572   1.274       .  A
O568        C574   1.272       .  A
O568       Cd571   2.500       .  S
C569       C3769   1.473       .  S
C569        O577   1.264       .  A
C570       C3745   1.469       .  S
C570        O575   1.273       .  A
C570        O573   1.266       .  A
Cd571       O578   2.417       .  S
Cd571       O577   2.428       .  S
Cd571       O576   2.427       .  S
Cd571       O572   2.476       .  S
Cd571       O575   2.466       .  S
Cd571       O573   2.424       .  S
C574       C3757   1.495       .  S
C574        O578   1.265       .  A
O579        C582   1.275       .  A
O579       Cd584   2.470       .  S
C580       C4588   1.490       .  S
C580        O589   1.267       .  A
C580        O585   1.273       .  A
O581        C587   1.274       .  A
O581       Cd584   2.491       .  S
C582       C3724   1.490       .  S
C582        O590   1.266       .  A
C583       C3712   1.490       .  S
C583        O588   1.275       .  A
C583        O586   1.266       .  A
Cd584       O591   2.404       .  S
Cd584       O590   2.410       .  S
Cd584       O589   2.415       .  S
Cd584       O585   2.477       .  S
Cd584       O588   2.479       .  S
Cd584       O586   2.411       .  S
C587       C3697   1.478       .  S
C587        O591   1.265       .  A
C592        C593   1.407   1_554  A
C592        C597   1.403       .  A
C592       C4945   1.483       .  S
C593        C594   1.408       .  A
C593        H598   1.083       .  S
C594        C595   1.401       .  A
C594       C3784   1.491       .  S
C595        C596   1.405   1_556  A
C595        H599   1.082       .  S
C596        C597   1.409       .  A
C596       C3688   1.500   1_554  S
C597        H600   1.081       .  S
C601        C602   1.401       .  A
C601        C606   1.410   1_455  A
C601       C3709   1.483       .  S
C602        C603   1.395       .  A
C602        H607   1.084       .  S
C603        C604   1.397   1_455  A
C603       C3673   1.466       .  S
C604        C605   1.400       .  A
C604        H608   1.084       .  S
C605        C606   1.409       .  A
C605       C3661   1.479       .  S
C606        H609   1.084       .  S
C610        C611   1.412       .  A
C610        C615   1.405   1_556  A
C610       C3649   1.503       .  S
C611        C612   1.411   1_455  A
C611        H616   1.074       .  S
C612        C613   1.402   1_556  A
C612       C3685   1.498       .  S
C613        C614   1.396   1_655  A
C613        H617   1.083       .  S
C614        C615   1.397       .  A
C614       C3676   1.474       .  S
C615        H618   1.082       .  S
C619        C620   1.404       .  A
C619        C624   1.398       .  A
C619       C4000   1.483       .  S
C620        C621   1.409       .  A
C620        H625   1.083       .  S
C621        C622   1.407       .  A
C621       C4516   1.496       .  S
C622        C623   1.410       .  A
C622        H626   1.078       .  S
C623        C624   1.405       .  A
C623       C3652   1.500       .  S
C624        H627   1.082       .  S
O628        C631   1.274       .  A
O628       Cd633   2.495       .  S
C629       C3637   1.470       .  S
C629        O638   1.265       .  A
C629        O634   1.273       .  A
O630        C636   1.273       .  A
O630       Cd633   2.492       .  S
C631       C3625   1.486       .  S
C631        O639   1.266       .  A
C632       C4996   1.478       .  S
C632        O637   1.273       .  A
C632        O635   1.266       .  A
Cd633       O640   2.418       .  S
Cd633       O639   2.419       .  S
Cd633       O638   2.424       .  S
Cd633       O634   2.483       .  S
Cd633       O637   2.491       .  S
Cd633       O635   2.415       .  S
C636       C3664   1.474       .  S
C636        O640   1.265       .  A
C641        C642   1.399       .  A
C641        C646   1.407       .  A
C641       C3589   1.477       .  S
C642        C643   1.400       .  A
C642        H647   1.084       .  S
C643        C644   1.400       .  A
C643       C3613   1.473       .  S
C644        C645   1.399       .  A
C644        H648   1.084       .  S
C645        C646   1.408       .  A
C645       C3601   1.477       .  S
C646        H649   1.084       .  S
C650        C651   1.410       .  A
C650        C655   1.409       .  A
C650       C3568   1.497       .  S
C651        C652   1.398       .  A
C651        H656   1.082       .  S
C652        C653   1.395       .  A
C652       C3616   1.466       .  S
C653        C654   1.396       .  A
C653        H657   1.084       .  S
C654        C655   1.400       .  A
C654       C3577   1.468       .  S
C655        H658   1.081       .  S
C659        C660   1.404       .  A
C659        C664   1.400       .  A
C659       C3628   1.478       .  S
C660        C661   1.404       .  A
C660        H665   1.083       .  S
C661        C662   1.400       .  A
C661       C4912   1.478       .  S
C662        C663   1.407       .  A
C662        H666   1.081       .  S
C663        C664   1.408       .  A
C663       C3565   1.496       .  S
C664        H667   1.082       .  S
C668        C669   1.407       .  A
C668        C673   1.401       .  A
C668       C3553   1.481       .  S
C669        C670   1.406       .  A
C669        H674   1.083       .  S
C670        C671   1.399       .  A
C670       C4333   1.476       .  S
C671        C672   1.401       .  A
C671        H675   1.084       .  S
C672        C673   1.404       .  A
C672       C3580   1.483       .  S
C673        H676   1.084       .  S
C677        C678   1.406       .  A
C677        C682   1.403       .  A
C677       C3529   1.481       .  S
C678        C679   1.406       .  A
C678        H683   1.083       .  S
C679        C680   1.399       .  A
C679       C4972   1.477       .  S
C680        C681   1.402       .  A
C680        H684   1.084       .  S
C681        C682   1.404       .  A
C681       C3544   1.486       .  S
C682        H685   1.083       .  S
C686        C687   1.411       .  A
C686        C691   1.401       .  A
C686       C4405   1.487       .  S
C687        C688   1.414   1_455  A
C687        H692   1.083       .  S
C688        C689   1.404       .  A
C688       C5116   1.494       .  S
C689        C690   1.400   1_655  A
C689        H693   1.084       .  S
C690        C691   1.399       .  A
C690       C3517   1.482       .  S
C691        H694   1.084       .  S
C695        C696   1.400   1_456  A
C695        C700   1.401       .  A
C695       C3520   1.467       .  S
C696        C697   1.400       .  A
C696        H701   1.084       .  S
C697        C698   1.398   1_655  A
C697       C3541   1.466       .  S
C698        C699   1.399       .  A
C698        H702   1.084       .  S
C699        C700   1.400   1_554  A
C699       C3505   1.467       .  S
C700        H703   1.084       .  S
C704        C705   1.403       .  A
C704        C709   1.408       .  A
C704       C4036   1.487       .  S
C705        C706   1.401   1_556  A
C705        H710   1.082       .  S
C706        C707   1.402       .  A
C706       C3508   1.485       .  S
C707        C708   1.402       .  A
C707        H711   1.084       .  S
C708        C709   1.408   1_554  A
C708       C3493   1.485       .  S
C709        H712   1.083       .  S
C713        C714   1.399       .  A
C713        C718   1.407       .  A
C713       C4936   1.478       .  S
C714        C715   1.402       .  A
C714        H719   1.083       .  S
C715        C716   1.400       .  A
C715       C3481   1.482       .  S
C716        C717   1.401       .  A
C716        H720   1.084       .  S
C717        C718   1.409       .  A
C717       C3469   1.487       .  S
C718        H721   1.083       .  S
C722        C723   1.407   1_455  A
C722        C727   1.409       .  A
C722       C3457   1.496       .  S
C723        C724   1.399       .  A
C723        H728   1.081       .  S
C724        C725   1.394       .  A
C724       C3484   1.467       .  S
C725        C726   1.397   1_655  A
C725        H729   1.084       .  S
C726        C727   1.401       .  A
C726       C3445   1.475       .  S
C727        H730   1.082       .  S
C731        C732   1.410   1_655  A
C731        C736   1.401       .  A
C731       C3433   1.482       .  S
C732        C733   1.409       .  A
C732        H737   1.083       .  S
C733        C734   1.399       .  A
C733       C3421   1.481       .  S
C734        C735   1.394       .  A
C734        H738   1.084       .  S
C735        C736   1.396   1_455  A
C735       C3448   1.464       .  S
C736        H739   1.084       .  S
C740        C741   1.400       .  A
C740        C745   1.406       .  A
C740       C3409   1.486       .  S
C741        C742   1.405       .  A
C741        H746   1.081       .  S
C742        C743   1.407       .  A
C742       C3460   1.495       .  S
C743        C744   1.402       .  A
C743        H747   1.081       .  S
C744        C745   1.406       .  A
C744       C3400   1.488       .  S
C745        H748   1.083       .  S
O749        C752   1.274       .  A
O749       Cd754   2.475       .  S
C750       C3385   1.469       .  S
C750        O759   1.265       .  A
C750        O755   1.273       .  A
O751        C757   1.273       .  A
O751       Cd754   2.472       .  S
C752       C3436   1.489       .  S
C752        O760   1.268       .  A
C753       C3532   1.487       .  S
C753        O758   1.274       .  A
C753        O756   1.265       .  A
Cd754       O761   2.424       .  S
Cd754       O760   2.416       .  S
Cd754       O759   2.422       .  S
Cd754       O755   2.476       .  S
Cd754       O758   2.487       .  S
Cd754       O756   2.419       .  S
C757       C3868   1.470       .  S
C757        O761   1.266       .  A
O762        C765   1.273       .  A
O762       Cd767   2.473       .  S
C763       C3397   1.493       .  S
C763        O772   1.264       .  A
C763        O768   1.274       .  A
O764        C770   1.272       .  A
O764       Cd767   2.491       .  S
C765       C3373   1.469       .  S
C765        O773   1.265       .  A
C766       C3349   1.490       .  S
C766        O771   1.273       .  A
C766        O769   1.268       .  A
Cd767       O774   2.420       .  S
Cd767       O773   2.423       .  S
Cd767       O772   2.406       .  S
Cd767       O768   2.493       .  S
Cd767       O771   2.466       .  S
Cd767       O769   2.420       .  S
C770       C3361   1.492       .  S
C770        O774   1.266       .  A
O775        C778   1.274       .  A
O775       Cd780   2.478       .  S
C776       C3424   1.488       .  S
C776        O785   1.266       .  A
C776        O781   1.273       .  A
O777        C783   1.275       .  A
O777       Cd780   2.481       .  S
C778       C3337   1.477       .  S
C778        O786   1.267       .  A
C779       C4825   1.476       .  S
C779        O784   1.273       .  A
C779        O782   1.265       .  A
Cd780       O787   2.415       .  S
Cd780       O786   2.420       .  S
Cd780       O785   2.412       .  S
Cd780       O781   2.482       .  S
Cd780       O784   2.495       .  S
Cd780       O782   2.410       .  S
C783       C3496   1.493       .  S
C783        O787   1.265       .  A
C788        C789   1.406       .  A
C788        C793   1.405       .  A
C788       C3316   1.491       .  S
C789        C790   1.402       .  A
C789        H794   1.083       .  S
C790        C791   1.397       .  A
C790       C4888   1.474       .  S
C791        C792   1.404       .  A
C791        H795   1.081       .  S
C792        C793   1.410       .  A
C792       C3325   1.499       .  S
C793        H796   1.080       .  S
C797        C798   1.411       .  A
C797        C802   1.403       .  A
C797       C3328   1.503       .  S
C798        C799   1.408   1_545  A
C798        H803   1.075       .  S
C799        C800   1.404       .  A
C799       C3292   1.500       .  S
C800        C801   1.396   1_565  A
C800        H804   1.082       .  S
C801        C802   1.397       .  A
C801       C3301   1.470       .  S
C802        H805   1.082       .  S
C806        C807   1.401       .  A
C806        C811   1.405       .  A
C806       C4324   1.487       .  S
C807        C808   1.407       .  A
C807        H812   1.081       .  S
C808        C809   1.408       .  A
C808       C3289   1.500       .  S
C809        C810   1.403       .  A
C809        H813   1.080       .  S
C810        C811   1.406       .  A
C810       C3277   1.488       .  S
C811        H814   1.083       .  S
C815        C816   1.398       .  A
C815        C820   1.407   1_565  A
C815       C3253   1.475       .  S
C816        C817   1.401   1_565  A
C816        H821   1.084       .  S
C817        C818   1.401       .  A
C817       C3304   1.480       .  S
C818        C819   1.401       .  A
C818        H822   1.084       .  S
C819        C820   1.408       .  A
C819       C3265   1.482       .  S
C820        H823   1.083   1_545  S
C824        C825   1.409       .  A
C824        C829   1.397       .  A
C824       C4393   1.479       .  S
C825        C826   1.414       .  A
C825        H830   1.082       .  S
C826        C827   1.407       .  A
C826       C4012   1.500       .  S
C827        C828   1.402       .  A
C827        H831   1.082       .  S
C828        C829   1.399       .  A
C828       C3241   1.484       .  S
C829        H832   1.084       .  S
C833        C834   1.399       .  A
C833        C838   1.397       .  A
C833       C3244   1.468       .  S
C834        C835   1.408       .  A
C834        H839   1.082       .  S
C835        C836   1.407       .  A
C835       C3229   1.494       .  S
C836        C837   1.398       .  A
C836        H840   1.082       .  S
C837        C838   1.395       .  A
C837       C3217   1.465       .  S
C838        H841   1.084       .  S
C842        C843   1.399       .  A
C842        C847   1.408       .  A
C842       C3193   1.475       .  S
C843        C844   1.398       .  A
C843        H848   1.084       .  S
C844        C845   1.397       .  A
C844       C3220   1.467       .  S
C845        C846   1.401       .  A
C845        H849   1.084       .  S
C846        C847   1.409       .  A
C846       C3205   1.483       .  S
C847        H850   1.084       .  S
C851        C852   1.401       .  A
C851        C856   1.405       .  A
C851       C3181   1.485       .  S
C852        C853   1.405       .  A
C852        H857   1.083       .  S
C853        C854   1.404       .  A
C853       C3232   1.494       .  S
C854        C855   1.400       .  A
C854        H858   1.081       .  S
C855        C856   1.406       .  A
C855       C3169   1.478       .  S
C856        H859   1.083       .  S
O860        C863   1.275       .  A
O860       Cd865   2.481       .  S
C861       C3208   1.489       .  S
C861        O870   1.268       .  A
C861        O866   1.274       .  A
O862        C868   1.274       .  A
O862       Cd865   2.483       .  S
C863       C3145   1.491       .  S
C863        O871   1.264       .  A
C864       C3133   1.492       .  S
C864        O869   1.274       .  A
C864        O867   1.267       .  A
Cd865       O872   2.418       .  S
Cd865       O871   2.419       .  S
Cd865       O870   2.412       .  S
Cd865       O866   2.471       .  S
Cd865       O869   2.477       .  S
Cd865       O867   2.419       .  S
C868       C3157   1.475       .  S
C868        O872   1.266       .  A
O873        C876   1.275       .  A
O873       Cd878   2.482       .  S
C874       C3121   1.484       .  S
C874        O883   1.266       .  A
C874        O879   1.274       .  A
O875        C881   1.274       .  A
O875       Cd878   2.483       .  S
C876       C3928   1.489       .  S
C876        O884   1.267       .  A
C877       C3109   1.471       .  S
C877        O882   1.273       .  A
C877        O880   1.265       .  A
Cd878       O885   2.410       .  S
Cd878       O884   2.415       .  S
Cd878       O883   2.416       .  S
Cd878       O879   2.480       .  S
Cd878       O882   2.480       .  S
Cd878       O880   2.427       .  S
C881       C3196   1.481       .  S
C881        O885   1.267       .  A
C886        C887   1.399       .  A
C886        C891   1.400       .  A
C886       C3085   1.467       .  S
C887        C888   1.399       .  A
C887        H892   1.084       .  S
C888        C889   1.399       .  A
C888       C3097   1.468       .  S
C889        C890   1.399       .  A
C889        H893   1.084       .  S
C890        C891   1.400       .  A
C890       C3073   1.466       .  S
C891        H894   1.084       .  S
C895        C896   1.411       .  A
C895        C900   1.404       .  A
C895       C3061   1.492       .  S
C896        C897   1.406       .  A
C896        H901   1.083       .  S
C897        C898   1.397       .  A
C897       C3124   1.476       .  S
C898        C899   1.400       .  A
C898        H902   1.083       .  S
C899        C900   1.403       .  A
C899       C3076   1.484       .  S
C900        H903   1.083       .  S
C904        C905   1.399       .  A
C904        C909   1.405       .  A
C904       C3160   1.477       .  S
C905        C906   1.402       .  A
C905        H910   1.083       .  S
C906        C907   1.404       .  A
C906       C3088   1.485       .  S
C907        C908   1.402       .  A
C907        H911   1.084       .  S
C908        C909   1.408       .  A
C908       C3049   1.486       .  S
C909        H912   1.083       .  S
C913        C914   1.402       .  A
C913        C918   1.411       .  A
C913       C3364   1.487       .  S
C914        C915   1.397       .  A
C914        H919   1.084       .  S
C915        C916   1.396       .  A
C915       C3100   1.467       .  S
C916        C917   1.400       .  A
C916        H920   1.084       .  S
C917        C918   1.411       .  A
C917       C3037   1.485       .  S
C918        H921   1.083       .  S
O922        C925   1.274       .  A
O922       Cd927   2.483       .  S
C923       C4816   1.481       .  S
C923        O932   1.266       .  A
C923        O928   1.273       .  A
O924        C930   1.273       .  A
O924       Cd927   2.485       .  S
C925       C3064   1.490       .  S
C925        O933   1.265       .  A
C926       C3412   1.489       .  S
C926        O931   1.273       .  A
C926        O929   1.267       .  A
Cd927       O934   2.423       .  S
Cd927       O933   2.414       .  S
Cd927       O932   2.414       .  S
Cd927       O928   2.494       .  S
Cd927       O931   2.490       .  S
Cd927       O929   2.410       .  S
C930       C3025   1.490       .  S
C930        O934   1.267       .  A
O935        C938   1.275       .  A
O935       Cd940   2.483       .  S
C936       C3052   1.494       .  S
C936        O945   1.264       .  A
C936        O941   1.275       .  A
O937        C943   1.273       .  A
O937       Cd940   2.482       .  S
C938       C4696   1.484       .  S
C938        O946   1.267       .  A
C939       C3001   1.473       .  S
C939        O944   1.273       .  A
C939        O942   1.266       .  A
Cd940       O947   2.415       .  S
Cd940       O946   2.414       .  S
Cd940       O945   2.415       .  S
Cd940       O941   2.493       .  S
Cd940       O944   2.471       .  S
Cd940       O942   2.429       .  S
C943       C3013   1.488       .  S
C943        O947   1.267       .  A
O948        C951   1.273       .  A
O948       Cd953   2.485       .  S
C949       C2989   1.478       .  S
C949        O958   1.266       .  A
C949        O954   1.273       .  A
O950        C956   1.274       .  A
O950       Cd953   2.489       .  S
C951       C2977   1.476       .  S
C951        O959   1.266       .  A
C952       C3256   1.480       .  S
C952        O957   1.274       .  A
C952        O955   1.266       .  A
Cd953       O960   2.411       .  S
Cd953       O959   2.425       .  S
Cd953       O958   2.423       .  S
Cd953       O954   2.482       .  S
Cd953       O957   2.489       .  S
Cd953       O955   2.410       .  S
C956       C4708   1.477       .  S
C956        O960   1.266       .  A
C961        C962   1.404       .  A
C961        C966   1.409       .  A
C961       C2953   1.502       .  S
C962        C963   1.396       .  A
C962        H967   1.082       .  S
C963        C964   1.395       .  A
C963       C2965   1.466       .  S
C964        C965   1.406       .  A
C964        H968   1.082       .  S
C965        C966   1.407       .  A
C965       C2941   1.499       .  S
C966        H969   1.078       .  S
C970        C971   1.401       .  A
C970        C975   1.405       .  A
C970       C3016   1.486       .  S
C971        C972   1.408       .  A
C971        H976   1.082       .  S
C972        C973   1.406       .  A
C972       C2956   1.499       .  S
C973        C974   1.403       .  A
C973        H977   1.078       .  S
C974        C975   1.407       .  A
C974       C2929   1.491       .  S
C975        H978   1.083       .  S
C979        C980   1.415       .  A
C979        C984   1.407       .  A
C979       C2917   1.495       .  S
C980        C981   1.409       .  A
C980        H985   1.083       .  S
C981        C982   1.397       .  A
C981       C2980   1.477       .  S
C982        C983   1.393       .  A
C982        H986   1.085       .  S
C983        C984   1.397       .  A
C983       C2968   1.467       .  S
C984        H987   1.084       .  S
C988        C989   1.398       .  A
C988        C993   1.403       .  A
C988       C2905   1.474       .  S
C989        C990   1.405       .  A
C989        H994   1.081       .  S
C990        C991   1.408       .  A
C990       C2944   1.502       .  S
C991        C992   1.405       .  A
C991        H995   1.079       .  S
C992        C993   1.407       .  A
C992       C2893   1.495       .  S
C993        H996   1.083       .  S
O997       C1000   1.274       .  A
O997      Cd1002   2.502       .  S
C998       C2881   1.492       .  S
C998       O1007   1.267       .  A
C998       O1003   1.273       .  A
O999       C1005   1.274       .  A
O999      Cd1002   2.493       .  S
C1000      C3280   1.491       .  S
C1000      O1008   1.264       .  A
C1001      C2920   1.495       .  S
C1001      O1006   1.273       .  A
C1001      O1004   1.267       .  A
Cd1002     O1009   2.411       .  S
Cd1002     O1008   2.412       .  S
Cd1002     O1007   2.419       .  S
Cd1002     O1003   2.479       .  S
Cd1002     O1006   2.486       .  S
Cd1002     O1004   2.426       .  S
C1005      C4144   1.488       .  S
C1005      O1009   1.265       .  A
O1010      C1013   1.274       .  A
O1010     Cd1015   2.482       .  S
C1011      C4072   1.472       .  S
C1011      O1020   1.266       .  A
C1011      O1016   1.273       .  A
O1012      C1018   1.275       .  A
O1012     Cd1015   2.483       .  S
C1013      C2908   1.477       .  S
C1013      O1021   1.267       .  A
C1014      C3556   1.491       .  S
C1014      O1019   1.274       .  A
C1014      O1017   1.267       .  A
Cd1015     O1022   2.422       .  S
Cd1015     O1021   2.406       .  S
Cd1015     O1020   2.408       .  S
Cd1015     O1016   2.481       .  S
Cd1015     O1019   2.485       .  S
Cd1015     O1017   2.421       .  S
C1018      C2869   1.490       .  S
C1018      O1022   1.265       .  A
C1023      C1024   1.413       .  A
C1023      C1028   1.403       .  A
C1023      C2845   1.495       .  S
C1024      C1025   1.413       .  A
C1024      H1029   1.081       .  S
C1025      C1026   1.403       .  A
C1025      C3736   1.494       .  S
C1026      C1027   1.400       .  A
C1026      H1030   1.084       .  S
C1027      C1028   1.396       .  A
C1027      C2857   1.481       .  S
C1028      H1031   1.083       .  S
C1032      C1033   1.409       .  A
C1032      C1037   1.409       .  A
C1032      C2821   1.496       .  S
C1033      C1034   1.400       .  A
C1033      H1038   1.081       .  S
C1034      C1035   1.395       .  A
C1034      C2860   1.467       .  S
C1035      C1036   1.394       .  A
C1035      H1039   1.084       .  S
C1036      C1037   1.399       .  A
C1036      C2833   1.467       .  S
C1037      H1040   1.082       .  S
C1041      C1042   1.403       .  A
C1041      C1046   1.405       .  A
C1041      C4960   1.487       .  S
C1042      C1043   1.407       .  A
C1042      H1047   1.080       .  S
C1043      C1044   1.407       .  A
C1043      C2824   1.496       .  S
C1044      C1045   1.400       .  A
C1044      H1048   1.081       .  S
C1045      C1046   1.403       .  A
C1045      C2809   1.483       .  S
C1046      H1049   1.084       .  S
C1050      C1051   1.412       .  A
C1050      C1055   1.400       .  A
C1050      C2797   1.480       .  S
C1051      C1052   1.413       .  A
C1051      H1056   1.083       .  S
C1052      C1053   1.403       .  A
C1052      C3388   1.492       .  S
C1053      C1054   1.393       .  A
C1053      H1057   1.084       .  S
C1054      C1055   1.395       .  A
C1054      C2836   1.464       .  S
C1055      H1058   1.084       .  S
O1059      C1062   1.273       .  A
O1059     Cd1064   2.486       .  S
C1060      C4720   1.492       .  S
C1060      O1069   1.264       .  A
C1060      O1065   1.274       .  A
O1061      C1067   1.274       .  A
O1061     Cd1064   2.482       .  S
C1062      C2773   1.493       .  S
C1062      O1070   1.268       .  A
C1063      C4477   1.482       .  S
C1063      O1068   1.274       .  A
C1063      O1066   1.266       .  A
Cd1064     O1071   2.410       .  S
Cd1064     O1070   2.415       .  S
Cd1064     O1069   2.417       .  S
Cd1064     O1065   2.479       .  S
Cd1064     O1068   2.494       .  S
Cd1064     O1066   2.408       .  S
C1067      C2785   1.474       .  S
C1067      O1071   1.266       .  A
C1072      C1073   1.401       .  A
C1072      C1077   1.396   1_455  A
C1072      C2749   1.473       .  S
C1073      C1074   1.408       .  A
C1073      H1078   1.081       .  S
C1074      C1075   1.408   1_455  A
C1074      C2761   1.496       .  S
C1075      C1076   1.399       .  A
C1075      H1079   1.082       .  S
C1076      C1077   1.396       .  A
C1076      C2737   1.469       .  S
C1077      H1080   1.084       .  S
C1081      C1082   1.407       .  A
C1081      C1086   1.414       .  A
C1081      C2725   1.501       .  S
C1082      C1083   1.397       .  A
C1082      H1087   1.083       .  S
C1083      C1084   1.395       .  A
C1083      C2740   1.480       .  S
C1084      C1085   1.401       .  A
C1084      H1088   1.084       .  S
C1085      C1086   1.412       .  A
C1085      C2713   1.493       .  S
C1086      H1089   1.078       .  S
C1090      C1091   1.403       .  A
C1090      C1095   1.407       .  A
C1090      C2776   1.488       .  S
C1091      C1092   1.407       .  A
C1091      H1096   1.080       .  S
C1092      C1093   1.408       .  A
C1092      C2764   1.498       .  S
C1093      C1094   1.400       .  A
C1093      H1097   1.082       .  S
C1094      C1095   1.405       .  A
C1094      C2701   1.483       .  S
C1095      H1098   1.083       .  S
C1099      C1100   1.412   1_655  A
C1099      C1104   1.405       .  A
C1099      C2692   1.491       .  S
C1100      C1101   1.410       .  A
C1100      H1105   1.083       .  S
C1101      C1102   1.400       .  A
C1101      C3352   1.487       .  S
C1102      C1103   1.394       .  A
C1102      H1106   1.084       .  S
C1103      C1104   1.397   1_455  A
C1103      C2752   1.466       .  S
C1104      H1107   1.083       .  S
O1108      C1111   1.273       .  A
O1108     Cd1113   2.472       .  S
C1109      C2728   1.488       .  S
C1109      O1118   1.267       .  A
C1109      O1114   1.273       .  A
O1110      C1116   1.274       .  A
O1110     Cd1113   2.466       .  S
C1111      C2677   1.468       .  S
C1111      O1119   1.266       .  A
C1112      C4132   1.486       .  S
C1112      O1117   1.274       .  A
C1112      O1115   1.265       .  A
Cd1113     O1120   2.402       .  S
Cd1113     O1119   2.419       .  S
Cd1113     O1118   2.421       .  S
Cd1113     O1114   2.469       .  S
Cd1113     O1117   2.488       .  S
Cd1113     O1115   2.406       .  S
C1116      C4465   1.486       .  S
C1116      O1120   1.267       .  A
O1121      C1124   1.275       .  A
O1121     Cd1126   2.471       .  S
C1122      C2665   1.486       .  S
C1122      O1131   1.266       .  A
C1122      O1127   1.274       .  A
O1123      C1129   1.273       .  A
O1123     Cd1126   2.475       .  S
C1124      C2812   1.485       .  S
C1124      O1132   1.266       .  A
C1125      C2641   1.492       .  S
C1125      O1130   1.275       .  A
C1125      O1128   1.265       .  A
Cd1126     O1133   2.419       .  S
Cd1126     O1132   2.404       .  S
Cd1126     O1131   2.400       .  S
Cd1126     O1127   2.485       .  S
Cd1126     O1130   2.479       .  S
Cd1126     O1128   2.417       .  S
C1129      C2653   1.468       .  S
C1129      O1133   1.265       .  A
C1134      C1135   1.410   1_545  A
C1134      C1139   1.405       .  A
C1134      C4984   1.491       .  S
C1135      C1136   1.405       .  A
C1135      H1140   1.083       .  S
C1136      C1137   1.398       .  A
C1136      C3640   1.485       .  S
C1137      C1138   1.404   1_565  A
C1137      H1141   1.083       .  S
C1138      C1139   1.407       .  A
C1138      C2629   1.497       .  S
C1139      H1142   1.080       .  S
C1143      C1144   1.402       .  A
C1143      C1148   1.408       .  A
C1143      C3721   1.487       .  S
C1144      C1145   1.402       .  A
C1144      H1149   1.083       .  S
C1145      C1146   1.405       .  A
C1145      C2620   1.488       .  S
C1146      C1147   1.402       .  A
C1146      H1150   1.083       .  S
C1147      C1148   1.405       .  A
C1147      C2605   1.481       .  S
C1148      H1151   1.083       .  S
C1152      C1153   1.401       .  A
C1152      C1157   1.399   1_655  A
C1152      C2593   1.478       .  S
C1153      C1154   1.407   1_545  A
C1153      H1158   1.082       .  S
C1154      C1155   1.409   1_655  A
C1154      C2632   1.496       .  S
C1155      C1156   1.400       .  A
C1155      H1159   1.081       .  S
C1156      C1157   1.396   1_565  A
C1156      C2617   1.470       .  S
C1157      H1160   1.083       .  S
C1161      C1162   1.413       .  A
C1161      C1166   1.403       .  A
C1161      C2584   1.492       .  S
C1162      C1163   1.413   1_455  A
C1162      H1167   1.082       .  S
C1163      C1164   1.402       .  A
C1163      C2644   1.491       .  S
C1164      C1165   1.395   1_655  A
C1164      H1168   1.084       .  S
C1165      C1166   1.394       .  A
C1165      C2596   1.466   1_455  S
C1166      H1169   1.084       .  S
O1170      C1173   1.274       .  A
O1170     Cd1175   2.484       .  S
C1171      C2581   1.492       .  S
C1171      O1180   1.267       .  A
C1171      O1176   1.273       .  A
O1172      C1178   1.274       .  A
O1172     Cd1175   2.482       .  S
C1173      C4864   1.480       .  S
C1173      O1181   1.267       .  A
C1174      C2569   1.487       .  S
C1174      O1179   1.275       .  A
C1174      O1177   1.265       .  A
Cd1175     O1182   2.412       .  S
Cd1175     O1181   2.407       .  S
Cd1175     O1180   2.422       .  S
Cd1175     O1176   2.476       .  S
Cd1175     O1179   2.480       .  S
Cd1175     O1177   2.417       .  S
C1178      C2560   1.480       .  S
C1178      O1182   1.266       .  A
C1183      C1184   1.403       .  A
C1183      C1188   1.411       .  A
C1183      C4900   1.489       .  S
C1184      C1185   1.400       .  A
C1184      H1189   1.084       .  S
C1185      C1186   1.400       .  A
C1185      C2545   1.482       .  S
C1186      C1187   1.399       .  A
C1186      H1190   1.083       .  S
C1187      C1188   1.407       .  A
C1187      C2533   1.479       .  S
C1188      H1191   1.083       .  S
C1192      C1193   1.395       .  A
C1192      C1197   1.399       .  A
C1192      C2512   1.467       .  S
C1193      C1194   1.395   1_554  A
C1193      H1198   1.084   1_554  S
C1194      C1195   1.399       .  A
C1194      C2548   1.468       .  S
C1195      C1196   1.411   1_556  A
C1195      H1199   1.082       .  S
C1196      C1197   1.408       .  A
C1196      C2521   1.497       .  S
C1197      H1200   1.081       .  S
C1201      C1202   1.409       .  A
C1201      C1206   1.403       .  A
C1201      C2485   1.490       .  S
C1202      C1203   1.408       .  A
C1202      H1207   1.083       .  S
C1203      C1204   1.403       .  A
C1203      C2497   1.484       .  S
C1204      C1205   1.401       .  A
C1204      H1208   1.083       .  S
C1205      C1206   1.402       .  A
C1205      C2509   1.485       .  S
C1206      H1209   1.084       .  S
C1210      C1211   1.402       .  A
C1210      C1215   1.408       .  A
C1210      C4372   1.491       .  S
C1211      C1212   1.406       .  A
C1211      H1216   1.080       .  S
C1212      C1213   1.404   1_554  A
C1212      C2524   1.496       .  S
C1213      C1214   1.403       .  A
C1213      H1217   1.080       .  S
C1214      C1215   1.407   1_556  A
C1214      C2476   1.493       .  S
C1215      H1218   1.083       .  S
O1219      C1222   1.271       .  A
O1219     Cd1224   2.469       .  S
C1220      C2473   1.492       .  S
C1220      O1229   1.266       .  A
C1220      O1225   1.271       .  A
O1221      C1227   1.272       .  A
O1221     Cd1224   2.490       .  S
C1222      C3184   1.468       .  S
C1222      O1230   1.265       .  A
C1223      C3313   1.492       .  S
C1223      O1228   1.272       .  A
C1223      O1226   1.267       .  A
Cd1224     O1231   2.409       .  S
Cd1224     O1230   2.427       .  S
Cd1224     O1229   2.414       .  S
Cd1224     O1225   2.489       .  S
Cd1224     O1228   2.477       .  S
Cd1224     O1226   2.413       .  S
C1227      C4552   1.490       .  S
C1227      O1231   1.265       .  A
C1232      C1233   1.407   1_655  A
C1232      C1237   1.408       .  A
C1232      C2461   1.495       .  S
C1233      C1234   1.399       .  A
C1233      H1238   1.081       .  S
C1234      C1235   1.397       .  A
C1234      C2452   1.469       .  S
C1235      C1236   1.400       .  A
C1235      H1239   1.083       .  S
C1236      C1237   1.402   1_455  A
C1236      C2437   1.480   1_455  S
C1237      H1240   1.082       .  S
C1241      C1242   1.405       .  A
C1241      C1246   1.417       .  A
C1241      C3112   1.498       .  S
C1242      C1243   1.394       .  A
C1242      H1247   1.084       .  S
C1243      C1244   1.393   1_455  A
C1243      C2440   1.468       .  S
C1244      C1245   1.403       .  A
C1244      H1248   1.084       .  S
C1245      C1246   1.417   1_655  A
C1245      C2425   1.496       .  S
C1246      H1249   1.082       .  S
C1250      C1251   1.406       .  A
C1250      C1255   1.402       .  A
C1250      C2413   1.486       .  S
C1251      C1252   1.405       .  A
C1251      H1256   1.083       .  S
C1252      C1253   1.399       .  A
C1252      C2668   1.482       .  S
C1253      C1254   1.406       .  A
C1253      H1257   1.082       .  S
C1254      C1255   1.407       .  A
C1254      C2464   1.496       .  S
C1255      H1258   1.081       .  S
C1259      C1260   1.406       .  A
C1259      C1264   1.400       .  A
C1259      C3028   1.480       .  S
C1260      C1261   1.406       .  A
C1260      H1265   1.083       .  S
C1261      C1262   1.402       .  A
C1261      C2572   1.480       .  S
C1262      C1263   1.403       .  A
C1262      H1266   1.083       .  S
C1263      C1264   1.404       .  A
C1263      C2449   1.487       .  S
C1264      H1267   1.084       .  S
O1268      C1271   1.272       .  A
O1268     Cd1273   2.485       .  S
C1269      C2716   1.490       .  S
C1269      O1278   1.267       .  A
C1269      O1274   1.273       .  A
O1270      C1276   1.273       .  A
O1270     Cd1273   2.474       .  S
C1271      C3916   1.473       .  S
C1271      O1279   1.264       .  A
C1272      C4168   1.492       .  S
C1272      O1277   1.274       .  A
C1272      O1275   1.264       .  A
Cd1273     O1280   2.431       .  S
Cd1273     O1279   2.428       .  S
Cd1273     O1278   2.421       .  S
Cd1273     O1274   2.462       .  S
Cd1273     O1277   2.487       .  S
Cd1273     O1275   2.429       .  S
C1276      C2401   1.474       .  S
C1276      O1280   1.266       .  A
O1281      C1284   1.273       .  A
O1281     Cd1286   2.486       .  S
C1282      C2428   1.493       .  S
C1282      O1291   1.266       .  A
C1282      O1287   1.272       .  A
O1283      C1289   1.272       .  A
O1283     Cd1286   2.496       .  S
C1284      C2389   1.494       .  S
C1284      O1292   1.267       .  A
C1285      C5140   1.473       .  S
C1285      O1290   1.272       .  A
C1285      O1288   1.265       .  A
Cd1286     O1293   2.401       .  S
Cd1286     O1292   2.420       .  S
Cd1286     O1291   2.421       .  S
Cd1286     O1287   2.494       .  S
Cd1286     O1290   2.480       .  S
Cd1286     O1288   2.412       .  S
C1289      C3901   1.491       .  S
C1289      O1293   1.266       .  A
C1294      C1295   1.408       .  A
C1294      C1299   1.406       .  A
C1294      C2365   1.496       .  S
C1295      C1296   1.408       .  A
C1295      H1300   1.075       .  S
C1296      C1297   1.405       .  A
C1296      C2377   1.496       .  S
C1297      C1298   1.394       .  A
C1297      H1301   1.083       .  S
C1298      C1299   1.394       .  A
C1298      C2353   1.467       .  S
C1299      H1302   1.083       .  S
C1303      C1304   1.408       .  A
C1303      C1308   1.411       .  A
C1303      C2404   1.502       .  S
C1304      C1305   1.406       .  A
C1304      H1309   1.081       .  S
C1305      C1306   1.404       .  A
C1305      C2368   1.499       .  S
C1306      C1307   1.399       .  A
C1306      H1310   1.081       .  S
C1307      C1308   1.407       .  A
C1307      C2341   1.482       .  S
C1308      H1311   1.081       .  S
C1312      C1313   1.410       .  A
C1312      C1317   1.400       .  A
C1312      C2329   1.482       .  S
C1313      C1314   1.414       .  A
C1313      H1318   1.083       .  S
C1314      C1315   1.404       .  A
C1314      C2392   1.490       .  S
C1315      C1316   1.396       .  A
C1315      H1319   1.084       .  S
C1316      C1317   1.395       .  A
C1316      C2356   1.468       .  S
C1317      H1320   1.084       .  S
C1321      C1322   1.407       .  A
C1321      C1326   1.410       .  A
C1321      C3772   1.500       .  S
C1322      C1323   1.405       .  A
C1322      H1327   1.082       .  S
C1323      C1324   1.403       .  A
C1323      C2380   1.496       .  S
C1324      C1325   1.399       .  A
C1324      H1328   1.081       .  S
C1325      C1326   1.407       .  A
C1325      C2317   1.483       .  S
C1326      H1329   1.081       .  S
O1330      C1333   1.273       .  A
O1330     Cd1335   2.465       .  S
C1331      C2320   1.487       .  S
C1331      O1340   1.263       .  A
C1331      O1336   1.274       .  A
O1332      C1338   1.273       .  A
O1332     Cd1335   2.476       .  S
C1333      C2896   1.491       .  S
C1333      O1341   1.268       .  A
C1334      C3592   1.483       .  S
C1334      O1339   1.273       .  A
C1334      O1337   1.265       .  A
Cd1335     O1342   2.433       .  S
Cd1335     O1341   2.416       .  S
Cd1335     O1340   2.405       .  S
Cd1335     O1336   2.496       .  S
Cd1335     O1339   2.499       .  S
Cd1335     O1337   2.421       .  S
C1338      C2305   1.473       .  S
C1338      O1342   1.266       .  A
O1343      C1346   1.272       .  A
O1343     Cd1348   2.475       .  S
C1344      C3040   1.492       .  S
C1344      O1353   1.265       .  A
C1344      O1349   1.272       .  A
O1345      C1351   1.273       .  A
O1345     Cd1348   2.498       .  S
C1346      C2293   1.492       .  S
C1346      O1354   1.268       .  A
C1347      C2281   1.469       .  S
C1347      O1352   1.272       .  A
C1347      O1350   1.265       .  A
Cd1348     O1355   2.409       .  S
Cd1348     O1354   2.432       .  S
Cd1348     O1353   2.421       .  S
Cd1348     O1349   2.494       .  S
Cd1348     O1352   2.475       .  S
Cd1348     O1350   2.426       .  S
C1351      C2932   1.493       .  S
C1351      O1355   1.263       .  A
C1356      C1357   1.403       .  A
C1356      C1361   1.405       .  A
C1356      C2257   1.491       .  S
C1357      C1358   1.404       .  A
C1357      H1362   1.080       .  S
C1358      C1359   1.404       .  A
C1358      C2269   1.495       .  S
C1359      C1360   1.402       .  A
C1359      H1363   1.081       .  S
C1360      C1361   1.406       .  A
C1360      C2245   1.484       .  S
C1361      H1364   1.083       .  S
C1365      C1366   1.407       .  A
C1365      C1370   1.410       .  A
C1365      C2272   1.497       .  S
C1366      C1367   1.397       .  A
C1366      H1371   1.080       .  S
C1367      C1368   1.395       .  A
C1367      C2233   1.468       .  S
C1368      C1369   1.400       .  A
C1368      H1372   1.084       .  S
C1369      C1370   1.401       .  A
C1369      C2221   1.479       .  S
C1370      H1373   1.082       .  S
C1374      C1375   1.416       .  A
C1374      C1379   1.404       .  A
C1374      C2308   1.498       .  S
C1375      C1376   1.415       .  A
C1375      H1380   1.082       .  S
C1376      C1377   1.405       .  A
C1376      C2296   1.498       .  S
C1377      C1378   1.393       .  A
C1377      H1381   1.084       .  S
C1378      C1379   1.394       .  A
C1378      C2224   1.468       .  S
C1379      H1382   1.082       .  S
C1383      C1384   1.411       .  A
C1383      C1388   1.405       .  A
C1383      C3748   1.491       .  S
C1384      C1385   1.410       .  A
C1384      H1389   1.083       .  S
C1385      C1386   1.402       .  A
C1385      C2212   1.491       .  S
C1386      C1387   1.398       .  A
C1386      H1390   1.084       .  S
C1387      C1388   1.400       .  A
C1387      C2236   1.484       .  S
C1388      H1391   1.081       .  S
O1392      C1395   1.272       .  A
O1392     Cd1397   2.463       .  S
C1393      C4780   1.482       .  S
C1393      O1402   1.267       .  A
C1393      O1398   1.273       .  A
O1394      C1400   1.274       .  A
O1394     Cd1397   2.492       .  S
C1395      C2260   1.488       .  S
C1395      O1403   1.268       .  A
C1396      C2500   1.492       .  S
C1396      O1401   1.276       .  A
C1396      O1399   1.264       .  A
Cd1397     O1404   2.413       .  S
Cd1397     O1403   2.402       .  S
Cd1397     O1402   2.401       .  S
Cd1397     O1398   2.469       .  S
Cd1397     O1401   2.479       .  S
Cd1397     O1399   2.413       .  S
C1400      C2197   1.480       .  S
C1400      O1404   1.266       .  A
O1405      C1408   1.274       .  A
O1405     Cd1410   2.489       .  S
C1406      C4276   1.489       .  S
C1406      O1415   1.268       .  A
C1406      O1411   1.273       .  A
O1407      C1413   1.273       .  A
O1407     Cd1410   2.479       .  S
C1408      C2248   1.487       .  S
C1408      O1416   1.263       .  A
C1409      C2173   1.481       .  S
C1409      O1414   1.273       .  A
C1409      O1412   1.266       .  A
Cd1410     O1417   2.428       .  S
Cd1410     O1416   2.397       .  S
Cd1410     O1415   2.415       .  S
Cd1410     O1411   2.478       .  S
Cd1410     O1414   2.497       .  S
Cd1410     O1412   2.417       .  S
C1413      C2185   1.471       .  S
C1413      O1417   1.265       .  A
C1418      C1419   1.404       .  A
C1418      C1423   1.409       .  A
C1418      C2188   1.491       .  S
C1419      C1420   1.402       .  A
C1419      H1424   1.082       .  S
C1420      C1421   1.401   1_554  A
C1420      C2161   1.486       .  S
C1421      C1422   1.401       .  A
C1421      H1425   1.084       .  S
C1422      C1423   1.409   1_556  A
C1422      C2149   1.487       .  S
C1423      H1426   1.083       .  S
C1427      C1428   1.406       .  A
C1427      C1432   1.398       .  A
C1427      C3988   1.477       .  S
C1428      C1429   1.410       .  A
C1428      H1433   1.083       .  S
C1429      C1430   1.405       .  A
C1429      C4048   1.491       .  S
C1430      C1431   1.403       .  A
C1430      H1434   1.082       .  S
C1431      C1432   1.401       .  A
C1431      C2137   1.486       .  S
C1432      H1435   1.084       .  S
C1436      C1437   1.397       .  A
C1436      C1441   1.400   1_556  A
C1436      C2140   1.468       .  S
C1437      C1438   1.397       .  A
C1437      H1442   1.084       .  S
C1438      C1439   1.400   1_556  A
C1438      C2164   1.467       .  S
C1439      C1440   1.406       .  A
C1439      H1443   1.084       .  S
C1440      C1441   1.405       .  A
C1440      C2125   1.486       .  S
C1441      H1444   1.083       .  S
C1445      C1446   1.407       .  A
C1445      C1450   1.400       .  A
C1445      C3340   1.476       .  S
C1446      C1447   1.407       .  A
C1446      H1451   1.084       .  S
C1447      C1448   1.400       .  A
C1447      C2200   1.475       .  S
C1448      C1449   1.398       .  A
C1448      H1452   1.084       .  S
C1449      C1450   1.398       .  A
C1449      C2128   1.469       .  S
C1450      H1453   1.084       .  S
C1454      C1455   1.400       .  A
C1454      C1459   1.412       .  A
C1454      C2101   1.499       .  S
C1455      C1456   1.396       .  A
C1455      H1460   1.082       .  S
C1456      C1457   1.397       .  A
C1456      C2113   1.470       .  S
C1457      C1458   1.405       .  A
C1457      H1461   1.082       .  S
C1458      C1459   1.410       .  A
C1458      C2089   1.502       .  S
C1459      H1462   1.075       .  S
C1463      C1464   1.407       .  A
C1463      C1468   1.411       .  A
C1463      C2077   1.495       .  S
C1464      C1465   1.409       .  A
C1464      H1469   1.080       .  S
C1465      C1466   1.400       .  A
C1465      C2104   1.499       .  S
C1466      C1467   1.401       .  A
C1466      H1470   1.082       .  S
C1467      C1468   1.407       .  A
C1467      C3376   1.489       .  S
C1468      H1471   1.083       .  S
C1472      C1473   1.410       .  A
C1472      C1477   1.402       .  A
C1472      C4621   1.482       .  S
C1473      C1474   1.408       .  A
C1473      H1478   1.084       .  S
C1474      C1475   1.398       .  A
C1474      C3700   1.475       .  S
C1475      C1476   1.395       .  A
C1475      H1479   1.084       .  S
C1476      C1477   1.396       .  A
C1476      C2116   1.463       .  S
C1477      H1480   1.084       .  S
C1481      C1482   1.406       .  A
C1481      C1486   1.400       .  A
C1481      C2176   1.478       .  S
C1482      C1483   1.406       .  A
C1482      H1487   1.083       .  S
C1483      C1484   1.402       .  A
C1483      C2284   1.485       .  S
C1484      C1485   1.407       .  A
C1484      H1488   1.082       .  S
C1485      C1486   1.407       .  A
C1485      C2092   1.500       .  S
C1486      H1489   1.080       .  S
O1490      C1493   1.274       .  A
O1490     Cd1495   2.504       .  S
C1491      C2152   1.492       .  S
C1491      O1500   1.264       .  A
C1491      O1496   1.275       .  A
O1492      C1498   1.274       .  A
O1492     Cd1495   2.489       .  S
C1493      C2065   1.494       .  S
C1493      O1501   1.264       .  A
C1494      C4672   1.490       .  S
C1494      O1499   1.273       .  A
C1494      O1497   1.267       .  A
Cd1495     O1502   2.419       .  S
Cd1495     O1501   2.412       .  S
Cd1495     O1500   2.413       .  S
Cd1495     O1496   2.488       .  S
Cd1495     O1499   2.490       .  S
Cd1495     O1497   2.414       .  S
C1498      C4240   1.485       .  S
C1498      O1502   1.266       .  A
O1503      C1506   1.274       .  A
O1503     Cd1508   2.487       .  S
C1504      C2053   1.489       .  S
C1504      O1513   1.266       .  A
C1504      O1509   1.276       .  A
O1505      C1511   1.273       .  A
O1505     Cd1508   2.465       .  S
C1506      C2536   1.473       .  S
C1506      O1514   1.265       .  A
C1507      C5188   1.470       .  S
C1507      O1512   1.273       .  A
C1507      O1510   1.265       .  A
Cd1508     O1515   2.425       .  S
Cd1508     O1514   2.410       .  S
Cd1508     O1513   2.407       .  S
Cd1508     O1509   2.483       .  S
Cd1508     O1512   2.477       .  S
Cd1508     O1510   2.422       .  S
C1511      C3808   1.492       .  S
C1511      O1515   1.269       .  A
O1516      C1519   1.272       .  A
O1516     Cd1521   2.480       .  S
C1517      C4228   1.469       .  S
C1517      O1526   1.266       .  A
C1517      O1522   1.273       .  A
O1518      C1524   1.273       .  A
O1518     Cd1521   2.491       .  S
C1519      C3820   1.492       .  S
C1519      O1527   1.266       .  A
C1520      C2041   1.473       .  S
C1520      O1525   1.274       .  A
C1520      O1523   1.266       .  A
Cd1521     O1528   2.426       .  S
Cd1521     O1527   2.419       .  S
Cd1521     O1526   2.422       .  S
Cd1521     O1522   2.469       .  S
Cd1521     O1525   2.481       .  S
Cd1521     O1523   2.418       .  S
C1524      C4204   1.472       .  S
C1524      O1528   1.264       .  A
C1529      C1530   1.407       .  A
C1529      C1534   1.401       .  A
C1529      C2044   1.478       .  S
C1530      C1531   1.406       .  A
C1530      H1535   1.083       .  S
C1531      C1532   1.399       .  A
C1531      C2056   1.479       .  S
C1532      C1533   1.402       .  A
C1532      H1536   1.084       .  S
C1533      C1534   1.401       .  A
C1533      C2029   1.482       .  S
C1534      H1537   1.083       .  S
C1538      C1539   1.409       .  A
C1538      C1543   1.404       .  A
C1538      C2005   1.489       .  S
C1539      C1540   1.408       .  A
C1539      H1544   1.083       .  S
C1540      C1541   1.401       .  A
C1540      C3148   1.483       .  S
C1541      C1542   1.399       .  A
C1541      H1545   1.084       .  S
C1542      C1543   1.402       .  A
C1542      C2017   1.484       .  S
C1543      H1546   1.083       .  S
C1547      C1548   1.396       .  A
C1547      C1552   1.401       .  A
C1547      C2020   1.469       .  S
C1548      C1549   1.395       .  A
C1548      H1553   1.084       .  S
C1549      C1550   1.398       .  A
C1549      C2032   1.467       .  S
C1550      C1551   1.408       .  A
C1550      H1554   1.083       .  S
C1551      C1552   1.410       .  A
C1551      C1993   1.495       .  S
C1552      H1555   1.081       .  S
C1556      C1557   1.408       .  A
C1556      C1561   1.403       .  A
C1556      C3004   1.495       .  S
C1557      C1558   1.409       .  A
C1557      H1562   1.082       .  S
C1558      C1559   1.404       .  A
C1558      C2068   1.491       .  S
C1559      C1560   1.405       .  A
C1559      H1563   1.079       .  S
C1560      C1561   1.403       .  A
C1560      C1996   1.495       .  S
C1561      H1564   1.083       .  S
O1565      C1568   1.274       .  A
O1565     Cd1570   2.481       .  S
C1566      C5176   1.471       .  S
C1566      O1575   1.265       .  A
C1566      O1571   1.273       .  A
O1567      C1573   1.273       .  A
O1567     Cd1570   2.486       .  S
C1568      C1981   1.486       .  S
C1568      O1576   1.267       .  A
C1569      C2008   1.493       .  S
C1569      O1574   1.272       .  A
C1569      O1572   1.266       .  A
Cd1570     O1577   2.423       .  S
Cd1570     O1576   2.417       .  S
Cd1570     O1575   2.413       .  S
Cd1570     O1571   2.487       .  S
Cd1570     O1574   2.482       .  S
Cd1570     O1572   2.423       .  S
C1573      C2332   1.473       .  S
C1573      O1577   1.266       .  A
O1578      C1581   1.274       .  A
O1578     Cd1583   2.489       .  S
C1579      C2608   1.492       .  S
C1579      O1588   1.266       .  A
C1579      O1584   1.274       .  A
O1580      C1586   1.275       .  A
O1580     Cd1583   2.491       .  S
C1581      C2704   1.488       .  S
C1581      O1589   1.267       .  A
C1582      C2080   1.496       .  S
C1582      O1587   1.275       .  A
C1582      O1585   1.265       .  A
Cd1583     O1590   2.412       .  S
Cd1583     O1589   2.409       .  S
Cd1583     O1588   2.434       .  S
Cd1583     O1584   2.487       .  S
Cd1583     O1587   2.502       .  S
Cd1583     O1585   2.419       .  S
C1586      C1972   1.478       .  S
C1586      O1590   1.266       .  A
C1591      C1592   1.408       .  A
C1591      C1596   1.400       .  A
C1591      C2788   1.478       .  S
C1592      C1593   1.407       .  A
C1592      H1597   1.083       .  S
C1593      C1594   1.400       .  A
C1593      C2992   1.475       .  S
C1594      C1595   1.399       .  A
C1594      H1598   1.084       .  S
C1595      C1596   1.401       .  A
C1595      C1957   1.480       .  S
C1596      H1599   1.084       .  S
C1600      C1601   1.408   1_545  A
C1600      C1605   1.411       .  A
C1600      C1933   1.496       .  S
C1601      C1602   1.398       .  A
C1601      H1606   1.081       .  S
C1602      C1603   1.395       .  A
C1602      C1960   1.466       .  S
C1603      C1604   1.395   1_565  A
C1603      H1607   1.084       .  S
C1604      C1605   1.399       .  A
C1604      C1948   1.468       .  S
C1605      H1608   1.082       .  S
C1609      C1610   1.404       .  A
C1609      C1614   1.406       .  A
C1609      C1909   1.490       .  S
C1610      C1611   1.407       .  A
C1610      H1615   1.081       .  S
C1611      C1612   1.403       .  A
C1611      C1936   1.496       .  S
C1612      C1613   1.397       .  A
C1612      H1616   1.082       .  S
C1613      C1614   1.404       .  A
C1613      C1921   1.473       .  S
C1614      H1617   1.083       .  S
C1618      C1619   1.406   1_565  A
C1618      C1623   1.400       .  A
C1618      C1969   1.477       .  S
C1619      C1620   1.406       .  A
C1619      H1624   1.083       .  S
C1620      C1621   1.399       .  A
C1620      C2557   1.475       .  S
C1621      C1622   1.401       .  A
C1621      H1625   1.083       .  S
C1622      C1623   1.403   1_545  A
C1622      C1945   1.482       .  S
C1623      H1626   1.084       .  S
O1627      C1630   1.276       .  A
O1627     Cd1632   2.486       .  S
C1628      C1897   1.489       .  S
C1628      O1637   1.266       .  A
C1628      O1633   1.276       .  A
O1629      C1635   1.273       .  A
O1629     Cd1632   2.467       .  S
C1630      C1885   1.488       .  S
C1630      O1638   1.264       .  A
C1631      C2848   1.489       .  S
C1631      O1636   1.273       .  A
C1631      O1634   1.268       .  A
Cd1632     O1639   2.421       .  S
Cd1632     O1638   2.398       .  S
Cd1632     O1637   2.411       .  S
Cd1632     O1633   2.471       .  S
Cd1632     O1636   2.460       .  S
Cd1632     O1634   2.419       .  S
C1635      C4060   1.468       .  S
C1635      O1639   1.266       .  A
C1640      C1641   1.408       .  A
C1640      C1645   1.405       .  A
C1640      C3760   1.495       .  S
C1641      C1642   1.406       .  A
C1641      H1646   1.083       .  S
C1642      C1643   1.399       .  A
C1642      C1984   1.480       .  S
C1643      C1644   1.403       .  A
C1643      H1647   1.082       .  S
C1644      C1645   1.408       .  A
C1644      C1873   1.497       .  S
C1645      H1648   1.081       .  S
C1649      C1650   1.400       .  A
C1649      C1654   1.395       .  A
C1649      C1861   1.469       .  S
C1650      C1651   1.410       .  A
C1650      H1655   1.082       .  S
C1651      C1652   1.407       .  A
C1651      C1876   1.497       .  S
C1652      C1653   1.402       .  A
C1652      H1656   1.081       .  S
C1653      C1654   1.398       .  A
C1653      C1849   1.479       .  S
C1654      H1657   1.083       .  S
C1658      C1659   1.407       .  A
C1658      C1663   1.400       .  A
C1658      C1837   1.476       .  S
C1659      C1660   1.408       .  A
C1659      H1664   1.084       .  S
C1660      C1661   1.400       .  A
C1660      C1888   1.481       .  S
C1661      C1662   1.396       .  A
C1661      H1665   1.084       .  S
C1662      C1663   1.397       .  A
C1662      C1852   1.465       .  S
C1663      H1666   1.084       .  S
C1667      C1668   1.402       .  A
C1667      C1672   1.410       .  A
C1667      C3136   1.484       .  S
C1668      C1669   1.400       .  A
C1668      H1673   1.084       .  S
C1669      C1670   1.402       .  A
C1669      C1864   1.485       .  S
C1670      C1671   1.400       .  A
C1670      H1674   1.083       .  S
C1671      C1672   1.408       .  A
C1671      C1825   1.481       .  S
C1672      H1675   1.083       .  S
O1676      C1679   1.273       .  A
O1676     Cd1681   2.492       .  S
C1677      C4084   1.475       .  S
C1677      O1686   1.267       .  A
C1677      O1682   1.272       .  A
O1678      C1684   1.275       .  A
O1678     Cd1681   2.497       .  S
C1679      C1924   1.479       .  S
C1679      O1687   1.265       .  A
C1680      C1840   1.486       .  S
C1680      O1685   1.274       .  A
C1680      O1683   1.266       .  A
Cd1681     O1688   2.403       .  S
Cd1681     O1687   2.400       .  S
Cd1681     O1686   2.420       .  S
Cd1681     O1682   2.479       .  S
Cd1681     O1685   2.491       .  S
Cd1681     O1683   2.412       .  S
C1684      C4852   1.493       .  S
C1684      O1688   1.263       .  A
O1689      C1692   1.273       .  A
O1689     Cd1694   2.493       .  S
C1690      C3268   1.491       .  S
C1690      O1699   1.267       .  A
C1690      O1695   1.273       .  A
O1691      C1697   1.272       .  A
O1691     Cd1694   2.485       .  S
C1692      C1828   1.475       .  S
C1692      O1700   1.265       .  A
C1693      C1912   1.492       .  S
C1693      O1698   1.272       .  A
C1693      O1696   1.268       .  A
Cd1694     O1701   2.412       .  S
Cd1694     O1700   2.420       .  S
Cd1694     O1699   2.420       .  S
Cd1694     O1695   2.483       .  S
Cd1694     O1698   2.470       .  S
Cd1694     O1696   2.414       .  S
C1697      C3172   1.486       .  S
C1697      O1701   1.266       .  A
O1702      C1705   1.275       .  A
O1702     Cd1707   2.480       .  S
C1703      C2344   1.487       .  S
C1703      O1712   1.266       .  A
C1703      O1708   1.275       .  A
O1704      C1710   1.275       .  A
O1704     Cd1707   2.483       .  S
C1705      C3472   1.491       .  S
C1705      O1713   1.265       .  A
C1706      C3604   1.484       .  S
C1706      O1711   1.274       .  A
C1706      O1709   1.266       .  A
Cd1707     O1714   2.411       .  S
Cd1707     O1713   2.414       .  S
Cd1707     O1712   2.410       .  S
Cd1707     O1708   2.489       .  S
Cd1707     O1711   2.491       .  S
Cd1707     O1709   2.415       .  S
C1710      C2689   1.492       .  S
C1710      O1714   1.265       .  A
O1715      C1718   1.272       .  A
O1715     Cd1720   2.476       .  S
C1716      C3793   1.491       .  S
C1716      O1725   1.265       .  A
C1716      O1721   1.275       .  A
O1717      C1723   1.274       .  A
O1717     Cd1720   2.492       .  S
C1718      C2209   1.490       .  S
C1718      O1726   1.267       .  A
C1719      C2488   1.494       .  S
C1719      O1724   1.273       .  A
C1719      O1722   1.268       .  A
Cd1720     O1727   2.412       .  S
Cd1720     O1726   2.423       .  S
Cd1720     O1725   2.413       .  S
Cd1720     O1721   2.477       .  S
Cd1720     O1724   2.480       .  S
Cd1720     O1722   2.421       .  S
C1723      C2800   1.488       .  S
C1723      O1727   1.266       .  A
O1728      C1731   1.272       .  A
O1728     Cd1733   2.479       .  S
C1729      C1816   1.495       .  S
C1729      O1738   1.264       .  A
C1729      O1734   1.274       .  A
O1730      C1736   1.272       .  A
O1730     Cd1733   2.487       .  S
C1731      C5128   1.468       .  S
C1731      O1739   1.264       .  A
C1732      C4420   1.470       .  S
C1732      O1737   1.273       .  A
C1732      O1735   1.265       .  A
Cd1733     O1740   2.420       .  S
Cd1733     O1739   2.418       .  S
Cd1733     O1738   2.419       .  S
Cd1733     O1734   2.499       .  S
Cd1733     O1737   2.484       .  S
Cd1733     O1735   2.418       .  S
C1736      C2416   1.491       .  S
C1736      O1740   1.267       .  A
C1741      C1742   1.407       .  A
C1741      C1746   1.402       .  A
C1741      C1900   1.481       .  S
C1742      C1743   1.410       .  A
C1742      H1747   1.083       .  S
C1743      C1744   1.403       .  A
C1743      C2656   1.492       .  S
C1744      C1745   1.401       .  A
C1744      H1748   1.083       .  S
C1745      C1746   1.402       .  A
C1745      C1801   1.487       .  S
C1746      H1749   1.083       .  S
C1750      C1751   1.402   1_565  A
C1750      C1755   1.403       .  A
C1750      C2680   1.484       .  S
C1751      C1752   1.408       .  A
C1751      H1756   1.083   1_545  S
C1752      C1753   1.407       .  A
C1752      C1813   1.494       .  S
C1753      C1754   1.411       .  A
C1753      H1757   1.080       .  S
C1754      C1755   1.408   1_545  A
C1754      C1789   1.506       .  S
C1755      H1758   1.081       .  S
C1759      C1760   1.409       .  A
C1759      C1764   1.414   1_545  A
C1759      C1792   1.499       .  S
C1760      C1761   1.401       .  A
C1760      H1765   1.081       .  S
C1761      C1762   1.394   1_545  A
C1761      C1804   1.466       .  S
C1762      C1763   1.393       .  A
C1762      H1766   1.084       .  S
C1763      C1764   1.399       .  A
C1763      C1777   1.469       .  S
C1764      H1767   1.082       .  S
C1768      C1769   1.407       .  A
C1768      C1773   1.403       .  A
C1768      C2872   1.484       .  S
C1769      C1770   1.409       .  A
C1769      H1774   1.083       .  S
C1770      C1771   1.402       .  A
C1770      C2884   1.486       .  S
C1771      C1772   1.401       .  A
C1771      H1775   1.084       .  S
C1772      C1773   1.404       .  A
C1772      C1780   1.487       .  S
C1773      H1776   1.083       .  S
C1777      C1778   1.399       .  A
C1777      C1782   1.408       .  A
C1778      C1779   1.394       .  A
C1778      H1787   1.085       .  S
C1779      C1780   1.416       .  A
C1779      S1783   1.801       .  S
C1780      C1781   1.409       .  A
C1781      C1782   1.399       .  A
C1781      H1788   1.084       .  S
C1782      S1784   1.804       .  S
S1783      H1786   1.407       .  S
S1784      H1785   1.405   1_565  S
C1789      C1790   1.411       .  A
C1789      C1794   1.420   1_545  A
C1790      C1791   1.402       .  A
C1790      H1799   1.081       .  S
C1791      C1792   1.420       .  A
C1791      S1795   1.804       .  S
C1792      C1793   1.404   1_545  A
C1793      C1794   1.393       .  A
C1793      H1800   1.082       .  S
C1794      S1796   1.797       .  S
S1795      H1798   1.407       .  S
S1796      H1797   1.407       .  S
C1801      C1802   1.410       .  A
C1801      C1806   1.417       .  A
C1802      C1803   1.398       .  A
C1802      H1811   1.083       .  S
C1803      C1804   1.407       .  A
C1803      S1807   1.804       .  S
C1804      C1805   1.398       .  A
C1805      C1806   1.393       .  A
C1805      H1812   1.085       .  S
C1806      S1808   1.801       .  S
S1807      H1810   1.405   1_545  S
S1808      H1809   1.407       .  S
C1813      C1814   1.403       .  A
C1813      C1818   1.418       .  A
C1814      C1815   1.399       .  A
C1814      H1823   1.084       .  S
C1815      C1816   1.421       .  A
C1815      S1819   1.802       .  S
C1816      C1817   1.407       .  A
C1817      C1818   1.404       .  A
C1817      H1824   1.084       .  S
C1818      S1820   1.804       .  S
S1819      H1822   1.408       .  S
S1820      H1821   1.407       .  S
C1825      C1826   1.402       .  A
C1825      C1830   1.415       .  A
C1826      C1827   1.399       .  A
C1826      H1835   1.084       .  S
C1827      C1828   1.413       .  A
C1827      S1831   1.805       .  S
C1828      C1829   1.403       .  A
C1829      C1830   1.404       .  A
C1829      H1836   1.084       .  S
C1830      S1832   1.803       .  S
S1831      H1834   1.407       .  S
S1832      H1833   1.406       .  S
C1837      C1838   1.398       .  A
C1837      C1842   1.413       .  A
C1838      C1839   1.397       .  A
C1838      H1847   1.084       .  S
C1839      C1840   1.419       .  A
C1839      S1843   1.800       .  S
C1840      C1841   1.405       .  A
C1841      C1842   1.403       .  A
C1841      H1848   1.084       .  S
C1842      S1844   1.804       .  S
S1843      H1846   1.408       .  S
S1844      H1845   1.406       .  S
C1849      C1850   1.406       .  A
C1849      C1854   1.415       .  A
C1850      C1851   1.394       .  A
C1850      H1859   1.083       .  S
C1851      C1852   1.408       .  A
C1851      S1855   1.805       .  S
C1852      C1853   1.400       .  A
C1853      C1854   1.397       .  A
C1853      H1860   1.084       .  S
C1854      S1856   1.804       .  S
S1855      H1858   1.405       .  S
S1856      H1857   1.406       .  S
C1861      C1862   1.400       .  A
C1861      C1866   1.408       .  A
C1862      C1863   1.394       .  A
C1862      H1871   1.085       .  S
C1863      C1864   1.416       .  A
C1863      S1867   1.805       .  S
C1864      C1865   1.409       .  A
C1865      C1866   1.398       .  A
C1865      H1872   1.084       .  S
C1866      S1868   1.804       .  S
S1867      H1870   1.407       .  S
S1868      H1869   1.405       .  S
C1873      C1874   1.407       .  A
C1873      C1878   1.420       .  A
C1874      C1875   1.396       .  A
C1874      H1883   1.082       .  S
C1875      C1876   1.419       .  A
C1875      S1879   1.805       .  S
C1876      C1877   1.407       .  A
C1877      C1878   1.397       .  A
C1877      H1884   1.082       .  S
C1878      S1880   1.805       .  S
S1879      H1882   1.407       .  S
S1880      H1881   1.407       .  S
C1885      C1886   1.405       .  A
C1885      C1890   1.422       .  A
C1886      C1887   1.401       .  A
C1886      H1895   1.084       .  S
C1887      C1888   1.415       .  A
C1887      S1891   1.805       .  S
C1888      C1889   1.399       .  A
C1889      C1890   1.398       .  A
C1889      H1896   1.084       .  S
C1890      S1892   1.803       .  S
S1891      H1894   1.406       .  S
S1892      H1893   1.408       .  S
C1897      C1898   1.405       .  A
C1897      C1902   1.422       .  A
C1898      C1899   1.400       .  A
C1898      H1907   1.084       .  S
C1899      C1900   1.413       .  A
C1899      S1903   1.802       .  S
C1900      C1901   1.399       .  A
C1901      C1902   1.401       .  A
C1901      H1908   1.084       .  S
C1902      S1904   1.802       .  S
S1903      H1906   1.406       .  S
S1904      H1905   1.408       .  S
C1909      C1910   1.407       .  A
C1909      C1914   1.414       .  A
C1910      C1911   1.401       .  A
C1910      H1919   1.084       .  S
C1911      C1912   1.416       .  A
C1911      S1915   1.800       .  S
C1912      C1913   1.409       .  A
C1913      C1914   1.398       .  A
C1913      H1920   1.083       .  S
C1914      S1916   1.804       .  S
S1915      H1918   1.408       .  S
S1916      H1917   1.407       .  S
C1921      C1922   1.403       .  A
C1921      C1926   1.411       .  A
C1922      C1923   1.403       .  A
C1922      H1931   1.084       .  S
C1923      C1924   1.415       .  A
C1923      S1927   1.801       .  S
C1924      C1925   1.404       .  A
C1925      C1926   1.395       .  A
C1925      H1932   1.084       .  S
C1926      S1928   1.806       .  S
S1927      H1930   1.401       .  S
S1928      H1929   1.402       .  S
C1933      C1934   1.408       .  A
C1933      C1938   1.419       .  A
C1934      C1935   1.396       .  A
C1934      H1943   1.082       .  S
C1935      C1936   1.419       .  A
C1935      S1939   1.806       .  S
C1936      C1937   1.407       .  A
C1937      C1938   1.395       .  A
C1937      H1944   1.082       .  S
C1938      S1940   1.805       .  S
S1939      H1942   1.407       .  S
S1940      H1941   1.407       .  S
C1945      C1946   1.405   1_545  A
C1945      C1950   1.418       .  A
C1946      C1947   1.393       .  A
C1946      H1955   1.084       .  S
C1947      C1948   1.410   1_565  A
C1947      S1951   1.806       .  S
C1948      C1949   1.399       .  A
C1949      C1950   1.399       .  A
C1949      H1956   1.084       .  S
C1950      S1952   1.804       .  S
S1951      H1954   1.406       .  S
S1952      H1953   1.407       .  S
C1957      C1958   1.404       .  A
C1957      C1962   1.417       .  A
C1958      C1959   1.393       .  A
C1958      H1967   1.084       .  S
C1959      C1960   1.411       .  A
C1959      S1963   1.806       .  S
C1960      C1961   1.399       .  A
C1961      C1962   1.398       .  A
C1961      H1968   1.084       .  S
C1962      S1964   1.804       .  S
S1963      H1966   1.404   1_565  S
S1964      H1965   1.406       .  S
C1969      C1970   1.403       .  A
C1969      C1974   1.412       .  A
C1970      C1971   1.402       .  A
C1970      H1979   1.084       .  S
C1971      C1972   1.415       .  A
C1971      S1975   1.802       .  S
C1972      C1973   1.404       .  A
C1973      C1974   1.399       .  A
C1973      H1980   1.084       .  S
C1974      S1976   1.805       .  S
S1975      H1978   1.399       .  S
S1976      H1977   1.406       .  S
C1981      C1982   1.407       .  A
C1981      C1986   1.416       .  A
C1982      C1983   1.398       .  A
C1982      H1991   1.084       .  S
C1983      C1984   1.411       .  A
C1983      S1987   1.805       .  S
C1984      C1985   1.404       .  A
C1985      C1986   1.403       .  A
C1985      H1992   1.084       .  S
C1986      S1988   1.801       .  S
S1987      H1990   1.406       .  S
S1988      H1989   1.408       .  S
C1993      C1994   1.410       .  A
C1993      C1998   1.417       .  A
C1994      C1995   1.398       .  A
C1994      H2003   1.082       .  S
C1995      C1996   1.416       .  A
C1995      S1999   1.805       .  S
C1996      C1997   1.409       .  A
C1997      C1998   1.395       .  A
C1997      H2004   1.083       .  S
C1998      S2000   1.806       .  S
S1999      H2002   1.407       .  S
S2000      H2001   1.407       .  S
C2005      C2006   1.407       .  A
C2005      C2010   1.412       .  A
C2006      C2007   1.400       .  A
C2006      H2015   1.084       .  S
C2007      C2008   1.416       .  A
C2007      S2011   1.800       .  S
C2008      C2009   1.411       .  A
C2009      C2010   1.400       .  A
C2009      H2016   1.084       .  S
C2010      S2012   1.804       .  S
S2011      H2014   1.408       .  S
S2012      H2013   1.407       .  S
C2017      C2018   1.408       .  A
C2017      C2022   1.416       .  A
C2018      C2019   1.399       .  A
C2018      H2027   1.084       .  S
C2019      C2020   1.408       .  A
C2019      S2023   1.804       .  S
C2020      C2021   1.400       .  A
C2021      C2022   1.395       .  A
C2021      H2028   1.084       .  S
C2022      S2024   1.805       .  S
S2023      H2026   1.405       .  S
S2024      H2025   1.407       .  S
C2029      C2030   1.405       .  A
C2029      C2034   1.418       .  A
C2030      C2031   1.394       .  A
C2030      H2039   1.084       .  S
C2031      C2032   1.410       .  A
C2031      S2035   1.806       .  S
C2032      C2033   1.399       .  A
C2033      C2034   1.398       .  A
C2033      H2040   1.084       .  S
C2034      S2036   1.804       .  S
S2035      H2038   1.406       .  S
S2036      H2037   1.407       .  S
C2041      C2042   1.402       .  A
C2041      C2046   1.412       .  A
C2042      C2043   1.399       .  A
C2042      H2051   1.084       .  S
C2043      C2044   1.413       .  A
C2043      S2047   1.805       .  S
C2044      C2045   1.404       .  A
C2045      C2046   1.402       .  A
C2045      H2052   1.084       .  S
C2046      S2048   1.803       .  S
S2047      H2050   1.406       .  S
S2048      H2049   1.406       .  S
C2053      C2054   1.405       .  A
C2053      C2058   1.422       .  A
C2054      C2055   1.401       .  A
C2054      H2063   1.084       .  S
C2055      C2056   1.414       .  A
C2055      S2059   1.805       .  S
C2056      C2057   1.398       .  A
C2057      C2058   1.400       .  A
C2057      H2064   1.084       .  S
C2058      S2060   1.802       .  S
S2059      H2062   1.406       .  S
S2060      H2061   1.408       .  S
C2065      C2066   1.408       .  A
C2065      C2070   1.421       .  A
C2066      C2067   1.405       .  A
C2066      H2075   1.083       .  S
C2067      C2068   1.417       .  A
C2067      S2071   1.804       .  S
C2068      C2069   1.402       .  A
C2069      C2070   1.397       .  A
C2069      H2076   1.084       .  S
C2070      S2072   1.803       .  S
S2071      H2074   1.407       .  S
S2072      H2073   1.408       .  S
C2077      C2078   1.403       .  A
C2077      C2082   1.418       .  A
C2078      C2079   1.399       .  A
C2078      H2087   1.084       .  S
C2079      C2080   1.422       .  A
C2079      S2083   1.802       .  S
C2080      C2081   1.407       .  A
C2081      C2082   1.405       .  A
C2081      H2088   1.083       .  S
C2082      S2084   1.804       .  S
S2083      H2086   1.408       .  S
S2084      H2085   1.407       .  S
C2089      C2090   1.410       .  A
C2089      C2094   1.418       .  A
C2090      C2091   1.396       .  A
C2090      H2099   1.082       .  S
C2091      C2092   1.418       .  A
C2091      S2095   1.805       .  S
C2092      C2093   1.410       .  A
C2093      C2094   1.397       .  A
C2093      H2100   1.081       .  S
C2094      S2096   1.806       .  S
S2095      H2098   1.407       .  S
S2096      H2097   1.407       .  S
C2101      C2102   1.405       .  A
C2101      C2106   1.423       .  A
C2102      C2103   1.396       .  A
C2102      H2111   1.082       .  S
C2103      C2104   1.421       .  A
C2103      S2107   1.804       .  S
C2104      C2105   1.405       .  A
C2105      C2106   1.397       .  A
C2105      H2112   1.082       .  S
C2106      S2108   1.805       .  S
S2107      H2110   1.407       .  S
S2108      H2109   1.407       .  S
C2113      C2114   1.402       .  A
C2113      C2118   1.412       .  A
C2114      C2115   1.394       .  A
C2114      H2123   1.084       .  S
C2115      C2116   1.410       .  A
C2115      S2119   1.805       .  S
C2116      C2117   1.400       .  A
C2117      C2118   1.396       .  A
C2117      H2124   1.084       .  S
C2118      S2120   1.804       .  S
S2119      H2122   1.403       .  S
S2120      H2121   1.406       .  S
C2125      C2126   1.407       .  A
C2125      C2130   1.418       .  A
C2126      C2127   1.397       .  A
C2126      H2135   1.084       .  S
C2127      C2128   1.409       .  A
C2127      S2131   1.805       .  S
C2128      C2129   1.399       .  A
C2129      C2130   1.397       .  A
C2129      H2136   1.084       .  S
C2130      S2132   1.805       .  S
S2131      H2134   1.405       .  S
S2132      H2133   1.407   1_554  S
C2137      C2138   1.408       .  A
C2137      C2142   1.417       .  A
C2138      C2139   1.397       .  A
C2138      H2147   1.084       .  S
C2139      C2140   1.408       .  A
C2139      S2143   1.805       .  S
C2140      C2141   1.400       .  A
C2141      C2142   1.397       .  A
C2141      H2148   1.085       .  S
C2142      S2144   1.804       .  S
S2143      H2146   1.405   1_556  S
S2144      H2145   1.407       .  S
C2149      C2150   1.401       .  A
C2149      C2154   1.417       .  A
C2150      C2151   1.400       .  A
C2150      H2159   1.084       .  S
C2151      C2152   1.422       .  A
C2151      S2155   1.802       .  S
C2152      C2153   1.405       .  A
C2153      C2154   1.401       .  A
C2153      H2160   1.084       .  S
C2154      S2156   1.805       .  S
S2155      H2158   1.408       .  S
S2156      H2157   1.407       .  S
C2161      C2162   1.408   1_554  A
C2161      C2166   1.418       .  A
C2162      C2163   1.396       .  A
C2162      H2171   1.084       .  S
C2163      C2164   1.408       .  A
C2163      S2167   1.805       .  S
C2164      C2165   1.400   1_556  A
C2165      C2166   1.398       .  A
C2165      H2172   1.084       .  S
C2166      S2168   1.804       .  S
S2167      H2170   1.404       .  S
S2168      H2169   1.407       .  S
C2173      C2174   1.403       .  A
C2173      C2178   1.416       .  A
C2174      C2175   1.397       .  A
C2174      H2183   1.084       .  S
C2175      C2176   1.412       .  A
C2175      S2179   1.806       .  S
C2176      C2177   1.403       .  A
C2177      C2178   1.406       .  A
C2177      H2184   1.084       .  S
C2178      S2180   1.801       .  S
S2179      H2182   1.403       .  S
S2180      H2181   1.403       .  S
C2185      C2186   1.401       .  A
C2185      C2190   1.410       .  A
C2186      C2187   1.403       .  A
C2186      H2195   1.084       .  S
C2187      C2188   1.418       .  A
C2187      S2191   1.803       .  S
C2188      C2189   1.407       .  A
C2189      C2190   1.399       .  A
C2189      H2196   1.084       .  S
C2190      S2192   1.805       .  S
S2191      H2194   1.407       .  S
S2192      H2193   1.405       .  S
C2197      C2198   1.405       .  A
C2197      C2202   1.413       .  A
C2198      C2199   1.398       .  A
C2198      H2207   1.084       .  S
C2199      C2200   1.410       .  A
C2199      S2203   1.805       .  S
C2200      C2201   1.404       .  A
C2201      C2202   1.403       .  A
C2201      H2208   1.084       .  S
C2202      S2204   1.802       .  S
S2203      H2206   1.405       .  S
S2204      H2205   1.407       .  S
C2209      C2210   1.410       .  A
C2209      C2214   1.415       .  A
C2210      C2211   1.401       .  A
C2210      H2219   1.084       .  S
C2211      C2212   1.414       .  A
C2211      S2215   1.804       .  S
C2212      C2213   1.408       .  A
C2213      C2214   1.399       .  A
C2213      H2220   1.084       .  S
C2214      S2216   1.801       .  S
S2215      H2218   1.406       .  S
S2216      H2217   1.408       .  S
C2221      C2222   1.402       .  A
C2221      C2226   1.418       .  A
C2222      C2223   1.394       .  A
C2222      H2231   1.084       .  S
C2223      C2224   1.412       .  A
C2223      S2227   1.805       .  S
C2224      C2225   1.399       .  A
C2225      C2226   1.398       .  A
C2225      H2232   1.084       .  S
C2226      S2228   1.805       .  S
S2227      H2230   1.405       .  S
S2228      H2229   1.407       .  S
C2233      C2234   1.402       .  A
C2233      C2238   1.406       .  A
C2234      C2235   1.397       .  A
C2234      H2243   1.084       .  S
C2235      C2236   1.415       .  A
C2235      S2239   1.804       .  S
C2236      C2237   1.409       .  A
C2237      C2238   1.396       .  A
C2237      H2244   1.084       .  S
C2238      S2240   1.804       .  S
S2239      H2242   1.406       .  S
S2240      H2241   1.405       .  S
C2245      C2246   1.400       .  A
C2245      C2250   1.415       .  A
C2246      C2247   1.395       .  A
C2246      H2255   1.084       .  S
C2247      C2248   1.420       .  A
C2247      S2251   1.801       .  S
C2248      C2249   1.405       .  A
C2249      C2250   1.402       .  A
C2249      H2256   1.084       .  S
C2250      S2252   1.804       .  S
S2251      H2254   1.406       .  S
S2252      H2253   1.407       .  S
C2257      C2258   1.408       .  A
C2257      C2262   1.415       .  A
C2258      C2259   1.399       .  A
C2258      H2267   1.083       .  S
C2259      C2260   1.415       .  A
C2259      S2263   1.801       .  S
C2260      C2261   1.408       .  A
C2261      C2262   1.397       .  A
C2261      H2268   1.084       .  S
C2262      S2264   1.804       .  S
S2263      H2266   1.408       .  S
S2264      H2265   1.407       .  S
C2269      C2270   1.408       .  A
C2269      C2274   1.417       .  A
C2270      C2271   1.396       .  A
C2270      H2279   1.082       .  S
C2271      C2272   1.419       .  A
C2271      S2275   1.806       .  S
C2272      C2273   1.409       .  A
C2273      C2274   1.395       .  A
C2273      H2280   1.082       .  S
C2274      S2276   1.806       .  S
S2275      H2278   1.407       .  S
S2276      H2277   1.407       .  S
C2281      C2282   1.398       .  A
C2281      C2286   1.413       .  A
C2282      C2283   1.396       .  A
C2282      H2291   1.085       .  S
C2283      C2284   1.418       .  A
C2283      S2287   1.806       .  S
C2284      C2285   1.405       .  A
C2285      C2286   1.404       .  A
C2285      H2292   1.084       .  S
C2286      S2288   1.804       .  S
S2287      H2290   1.407       .  S
S2288      H2289   1.405       .  S
C2293      C2294   1.409       .  A
C2293      C2298   1.414       .  A
C2294      C2295   1.406       .  A
C2294      H2303   1.082       .  S
C2295      C2296   1.415       .  A
C2295      S2299   1.809       .  S
C2296      C2297   1.409       .  A
C2297      C2298   1.399       .  A
C2297      H2304   1.084       .  S
C2298      S2300   1.801       .  S
S2299      H2302   1.407       .  S
S2300      H2301   1.408       .  S
C2305      C2306   1.398       .  A
C2305      C2310   1.412       .  A
C2306      C2307   1.399       .  A
C2306      H2315   1.085       .  S
C2307      C2308   1.422       .  A
C2307      S2311   1.804       .  S
C2308      C2309   1.408       .  A
C2309      C2310   1.403       .  A
C2309      H2316   1.083       .  S
C2310      S2312   1.804       .  S
S2311      H2314   1.406       .  S
S2312      H2313   1.406       .  S
C2317      C2318   1.400       .  A
C2317      C2322   1.415       .  A
C2318      C2319   1.397       .  A
C2318      H2327   1.085       .  S
C2319      C2320   1.420       .  A
C2319      S2323   1.803       .  S
C2320      C2321   1.406       .  A
C2321      C2322   1.403       .  A
C2321      H2328   1.084       .  S
C2322      S2324   1.804       .  S
S2323      H2326   1.408       .  S
S2324      H2325   1.406       .  S
C2329      C2330   1.404       .  A
C2329      C2334   1.414       .  A
C2330      C2331   1.398       .  A
C2330      H2339   1.084       .  S
C2331      C2332   1.412       .  A
C2331      S2335   1.805       .  S
C2332      C2333   1.403       .  A
C2333      C2334   1.404       .  A
C2333      H2340   1.084       .  S
C2334      S2336   1.802       .  S
S2335      H2338   1.406       .  S
S2336      H2337   1.406       .  S
C2341      C2342   1.401       .  A
C2341      C2346   1.414       .  A
C2342      C2343   1.398       .  A
C2342      H2351   1.085       .  S
C2343      C2344   1.419       .  A
C2343      S2347   1.804       .  S
C2344      C2345   1.406       .  A
C2345      C2346   1.404       .  A
C2345      H2352   1.084       .  S
C2346      S2348   1.803       .  S
S2347      H2350   1.408       .  S
S2348      H2349   1.406       .  S
C2353      C2354   1.401       .  A
C2353      C2358   1.411       .  A
C2354      C2355   1.396       .  A
C2354      H2363   1.084       .  S
C2355      C2356   1.411       .  A
C2355      S2359   1.805       .  S
C2356      C2357   1.401       .  A
C2357      C2358   1.397       .  A
C2357      H2364   1.084       .  S
C2358      S2360   1.805       .  S
S2359      H2362   1.405       .  S
S2360      H2361   1.405       .  S
C2365      C2366   1.407       .  A
C2365      C2370   1.418       .  A
C2366      C2367   1.393       .  A
C2366      H2375   1.082       .  S
C2367      C2368   1.418       .  A
C2367      S2371   1.803       .  S
C2368      C2369   1.410       .  A
C2369      C2370   1.399       .  A
C2369      H2376   1.082       .  S
C2370      S2372   1.805       .  S
S2371      H2374   1.407       .  S
S2372      H2373   1.407       .  S
C2377      C2378   1.407       .  A
C2377      C2382   1.418       .  A
C2378      C2379   1.393       .  A
C2378      H2387   1.082       .  S
C2379      C2380   1.418       .  A
C2379      S2383   1.804       .  S
C2380      C2381   1.409       .  A
C2381      C2382   1.399       .  A
C2381      H2388   1.082       .  S
C2382      S2384   1.805       .  S
S2383      H2386   1.407       .  S
S2384      H2385   1.407       .  S
C2389      C2390   1.410       .  A
C2389      C2394   1.417       .  A
C2390      C2391   1.400       .  A
C2390      H2399   1.083       .  S
C2391      C2392   1.412       .  A
C2391      S2395   1.803       .  S
C2392      C2393   1.407       .  A
C2393      C2394   1.402       .  A
C2393      H2400   1.084       .  S
C2394      S2396   1.800       .  S
S2395      H2398   1.406       .  S
S2396      H2397   1.408       .  S
C2401      C2402   1.404       .  A
C2401      C2406   1.406       .  A
C2402      C2403   1.406       .  A
C2402      H2411   1.085       .  S
C2403      C2404   1.420       .  A
C2403      S2407   1.803       .  S
C2404      C2405   1.411       .  A
C2405      C2406   1.395       .  A
C2405      H2412   1.082       .  S
C2406      S2408   1.804       .  S
S2407      H2410   1.407       .  S
S2408      H2409   1.406       .  S
C2413      C2414   1.406       .  A
C2413      C2418   1.413       .  A
C2414      C2415   1.404       .  A
C2414      H2423   1.084       .  S
C2415      C2416   1.417       .  A
C2415      S2419   1.800       .  S
C2416      C2417   1.408       .  A
C2417      C2418   1.397       .  A
C2417      H2424   1.084       .  S
C2418      S2420   1.805       .  S
S2419      H2422   1.407       .  S
S2420      H2421   1.407       .  S
C2425      C2426   1.410       .  A
C2425      C2430   1.413       .  A
C2426      C2427   1.403       .  A
C2426      H2435   1.084       .  S
C2427      C2428   1.415       .  A
C2427      S2431   1.801       .  S
C2428      C2429   1.408       .  A
C2429      C2430   1.399       .  A
C2429      H2436   1.084       .  S
C2430      S2432   1.799       .  S
S2431      H2434   1.408       .  S
S2432      H2433   1.407       .  S
C2437      C2438   1.407       .  A
C2437      C2442   1.414   1_655  A
C2438      C2439   1.396       .  A
C2438      H2447   1.084       .  S
C2439      C2440   1.408   1_655  A
C2439      S2443   1.805       .  S
C2440      C2441   1.401       .  A
C2441      C2442   1.397       .  A
C2441      H2448   1.084       .  S
C2442      S2444   1.804       .  S
S2443      H2446   1.405   1_655  S
S2444      H2445   1.406   1_455  S
C2449      C2450   1.405       .  A
C2449      C2454   1.419       .  A
C2450      C2451   1.395       .  A
C2450      H2459   1.084       .  S
C2451      C2452   1.411       .  A
C2451      S2455   1.807       .  S
C2452      C2453   1.399       .  A
C2453      C2454   1.400       .  A
C2453      H2460   1.084       .  S
C2454      S2456   1.802       .  S
S2455      H2458   1.403   1_455  S
S2456      H2457   1.407       .  S
C2461      C2462   1.408       .  A
C2461      C2466   1.417       .  A
C2462      C2463   1.396       .  A
C2462      H2471   1.082       .  S
C2463      C2464   1.417       .  A
C2463      S2467   1.806       .  S
C2464      C2465   1.409       .  A
C2465      C2466   1.396       .  A
C2465      H2472   1.082       .  S
C2466      S2468   1.805       .  S
S2467      H2470   1.407       .  S
S2468      H2469   1.407       .  S
C2473      C2474   1.408       .  A
C2473      C2478   1.416       .  A
C2474      C2475   1.397       .  A
C2474      H2483   1.084       .  S
C2475      C2476   1.416       .  A
C2475      S2479   1.804       .  S
C2476      C2477   1.408       .  A
C2477      C2478   1.402       .  A
C2477      H2484   1.084       .  S
C2478      S2480   1.800       .  S
S2479      H2482   1.407       .  S
S2480      H2481   1.408       .  S
C2485      C2486   1.407       .  A
C2485      C2490   1.412       .  A
C2486      C2487   1.401       .  A
C2486      H2495   1.084       .  S
C2487      C2488   1.416       .  A
C2487      S2491   1.800       .  S
C2488      C2489   1.410       .  A
C2489      C2490   1.401       .  A
C2489      H2496   1.084       .  S
C2490      S2492   1.804       .  S
S2491      H2494   1.408       .  S
S2492      H2493   1.407       .  S
C2497      C2498   1.400       .  A
C2497      C2502   1.414       .  A
C2498      C2499   1.401       .  A
C2498      H2507   1.084       .  S
C2499      C2500   1.423       .  A
C2499      S2503   1.801       .  S
C2500      C2501   1.404       .  A
C2501      C2502   1.399       .  A
C2501      H2508   1.084       .  S
C2502      S2504   1.802       .  S
S2503      H2506   1.408       .  S
S2504      H2505   1.407       .  S
C2509      C2510   1.406       .  A
C2509      C2514   1.418       .  A
C2510      C2511   1.394       .  A
C2510      H2519   1.084       .  S
C2511      C2512   1.410       .  A
C2511      S2515   1.807       .  S
C2512      C2513   1.398       .  A
C2513      C2514   1.398       .  A
C2513      H2520   1.084       .  S
C2514      S2516   1.800       .  S
S2515      H2518   1.404       .  S
S2516      H2517   1.407       .  S
C2521      C2522   1.408   1_554  A
C2521      C2526   1.419       .  A
C2522      C2523   1.395       .  A
C2522      H2531   1.082       .  S
C2523      C2524   1.419   1_556  A
C2523      S2527   1.806       .  S
C2524      C2525   1.408       .  A
C2525      C2526   1.396       .  A
C2525      H2532   1.082       .  S
C2526      S2528   1.805       .  S
S2527      H2530   1.407       .  S
S2528      H2529   1.407       .  S
C2533      C2534   1.402       .  A
C2533      C2538   1.414       .  A
C2534      C2535   1.398       .  A
C2534      H2543   1.084       .  S
C2535      C2536   1.413       .  A
C2535      S2539   1.805       .  S
C2536      C2537   1.402       .  A
C2537      C2538   1.403       .  A
C2537      H2544   1.084       .  S
C2538      S2540   1.804       .  S
S2539      H2542   1.406       .  S
S2540      H2541   1.406       .  S
C2545      C2546   1.408       .  A
C2545      C2550   1.416       .  A
C2546      C2547   1.396       .  A
C2546      H2555   1.084       .  S
C2547      C2548   1.408       .  A
C2547      S2551   1.804       .  S
C2548      C2549   1.401       .  A
C2549      C2550   1.395       .  A
C2549      H2556   1.085       .  S
C2550      S2552   1.805       .  S
S2551      H2554   1.406   1_556  S
S2552      H2553   1.407       .  S
C2557      C2558   1.400       .  A
C2557      C2562   1.413       .  A
C2558      C2559   1.400       .  A
C2558      H2567   1.084       .  S
C2559      C2560   1.417       .  A
C2559      S2563   1.804       .  S
C2560      C2561   1.403       .  A
C2561      C2562   1.401       .  A
C2561      H2568   1.084       .  S
C2562      S2564   1.805       .  S
S2563      H2566   1.408       .  S
S2564      H2565   1.405       .  S
C2569      C2570   1.404       .  A
C2569      C2574   1.421       .  A
C2570      C2571   1.400       .  A
C2570      H2579   1.084       .  S
C2571      C2572   1.413       .  A
C2571      S2575   1.803       .  S
C2572      C2573   1.400       .  A
C2573      C2574   1.401       .  A
C2573      H2580   1.084       .  S
C2574      S2576   1.803       .  S
S2575      H2578   1.406       .  S
S2576      H2577   1.408       .  S
C2581      C2582   1.410       .  A
C2581      C2586   1.415       .  A
C2582      C2583   1.401       .  A
C2582      H2591   1.084       .  S
C2583      C2584   1.414       .  A
C2583      S2587   1.804       .  S
C2584      C2585   1.408       .  A
C2585      C2586   1.400       .  A
C2585      H2592   1.084       .  S
C2586      S2588   1.800       .  S
S2587      H2590   1.407       .  S
S2588      H2589   1.408       .  S
C2593      C2594   1.406       .  A
C2593      C2598   1.414   1_655  A
C2594      C2595   1.394       .  A
C2594      H2603   1.084       .  S
C2595      C2596   1.408       .  A
C2595      S2599   1.805       .  S
C2596      C2597   1.401   1_655  A
C2597      C2598   1.397       .  A
C2597      H2604   1.084       .  S
C2598      S2600   1.804   1_545  S
S2599      H2602   1.406   1_655  S
S2600      H2601   1.406   1_455  S
C2605      C2606   1.398       .  A
C2605      C2610   1.414       .  A
C2606      C2607   1.399       .  A
C2606      H2615   1.084       .  S
C2607      C2608   1.421       .  A
C2607      S2611   1.796       .  S
C2608      C2609   1.405       .  A
C2609      C2610   1.402       .  A
C2609      H2616   1.084       .  S
C2610      S2612   1.803       .  S
S2611      H2614   1.404       .  S
S2612      H2613   1.406       .  S
C2617      C2618   1.401       .  A
C2617      C2622   1.407       .  A
C2618      C2619   1.395       .  A
C2618      H2627   1.085       .  S
C2619      C2620   1.416       .  A
C2619      S2623   1.803       .  S
C2620      C2621   1.410       .  A
C2621      C2622   1.399       .  A
C2621      H2628   1.083       .  S
C2622      S2624   1.804       .  S
S2623      H2626   1.407       .  S
S2624      H2625   1.405   1_565  S
C2629      C2630   1.410   1_545  A
C2629      C2634   1.416       .  A
C2630      C2631   1.396       .  A
C2630      H2639   1.082       .  S
C2631      C2632   1.417       .  A
C2631      S2635   1.806       .  S
C2632      C2633   1.410   1_565  A
C2633      C2634   1.397       .  A
C2633      H2640   1.082       .  S
C2634      S2636   1.805       .  S
S2635      H2638   1.407       .  S
S2636      H2637   1.407       .  S
C2641      C2642   1.404       .  A
C2641      C2646   1.421       .  A
C2642      C2643   1.400       .  A
C2642      H2651   1.083       .  S
C2643      C2644   1.419       .  A
C2643      S2647   1.805       .  S
C2644      C2645   1.402       .  A
C2645      C2646   1.400       .  A
C2645      H2652   1.083       .  S
C2646      S2648   1.802       .  S
S2647      H2650   1.407       .  S
S2648      H2649   1.408       .  S
C2653      C2654   1.401       .  A
C2653      C2658   1.408       .  A
C2654      C2655   1.403       .  A
C2654      H2663   1.084       .  S
C2655      C2656   1.418       .  A
C2655      S2659   1.803       .  S
C2656      C2657   1.409       .  A
C2657      C2658   1.397       .  A
C2657      H2664   1.084       .  S
C2658      S2660   1.805       .  S
S2659      H2662   1.407       .  S
S2660      H2661   1.405       .  S
C2665      C2666   1.408       .  A
C2665      C2670   1.415       .  A
C2666      C2667   1.396       .  A
C2666      H2675   1.084       .  S
C2667      C2668   1.411       .  A
C2667      S2671   1.805       .  S
C2668      C2669   1.406       .  A
C2669      C2670   1.402       .  A
C2669      H2676   1.084       .  S
C2670      S2672   1.800       .  S
S2671      H2674   1.407       .  S
S2672      H2673   1.407       .  S
C2677      C2678   1.397       .  A
C2677      C2682   1.413       .  A
C2678      C2679   1.394       .  A
C2678      H2687   1.085       .  S
C2679      C2680   1.414       .  A
C2679      S2683   1.801       .  S
C2680      C2681   1.406       .  A
C2681      C2682   1.406       .  A
C2681      H2688   1.084       .  S
C2682      S2684   1.805       .  S
S2683      H2686   1.406       .  S
S2684      H2685   1.404       .  S
C2689      C2690   1.405       .  A
C2689      C2694   1.421       .  A
C2690      C2691   1.402       .  A
C2690      H2699   1.084       .  S
C2691      C2692   1.418       .  A
C2691      S2695   1.805       .  S
C2692      C2693   1.402       .  A
C2693      C2694   1.399       .  A
C2693      H2700   1.084       .  S
C2694      S2696   1.802       .  S
S2695      H2698   1.407       .  S
S2696      H2697   1.408       .  S
C2701      C2702   1.405       .  A
C2701      C2706   1.411       .  A
C2702      C2703   1.403       .  A
C2702      H2711   1.084       .  S
C2703      C2704   1.416       .  A
C2703      S2707   1.800       .  S
C2704      C2705   1.408       .  A
C2705      C2706   1.397       .  A
C2705      H2712   1.084       .  S
C2706      S2708   1.805       .  S
S2707      H2710   1.407       .  S
S2708      H2709   1.406       .  S
C2713      C2714   1.409       .  A
C2713      C2718   1.414       .  A
C2714      C2715   1.397       .  A
C2714      H2723   1.083       .  S
C2715      C2716   1.414       .  A
C2715      S2719   1.801       .  S
C2716      C2717   1.411       .  A
C2717      C2718   1.402       .  A
C2717      H2724   1.083       .  S
C2718      S2720   1.803       .  S
S2719      H2722   1.408       .  S
S2720      H2721   1.406       .  S
C2725      C2726   1.412       .  A
C2725      C2730   1.417       .  A
C2726      C2727   1.396       .  A
C2726      H2735   1.083       .  S
C2727      C2728   1.411       .  A
C2727      S2731   1.802       .  S
C2728      C2729   1.409       .  A
C2729      C2730   1.406       .  A
C2729      H2736   1.082       .  S
C2730      S2732   1.808       .  S
S2731      H2734   1.408       .  S
S2732      H2733   1.407       .  S
C2737      C2738   1.401       .  A
C2737      C2742   1.409       .  A
C2738      C2739   1.394       .  A
C2738      H2747   1.085       .  S
C2739      C2740   1.415       .  A
C2739      S2743   1.805       .  S
C2740      C2741   1.406       .  A
C2741      C2742   1.397       .  A
C2741      H2748   1.084       .  S
C2742      S2744   1.804       .  S
S2743      H2746   1.406       .  S
S2744      H2745   1.406       .  S
C2749      C2750   1.403       .  A
C2749      C2754   1.412       .  A
C2750      C2751   1.395       .  A
C2750      H2759   1.084       .  S
C2751      C2752   1.411       .  A
C2751      S2755   1.808       .  S
C2752      C2753   1.402       .  A
C2753      C2754   1.398       .  A
C2753      H2760   1.084       .  S
C2754      S2756   1.804       .  S
S2755      H2758   1.403       .  S
S2756      H2757   1.406       .  S
C2761      C2762   1.408       .  A
C2761      C2766   1.417       .  A
C2762      C2763   1.401       .  A
C2762      H2771   1.080       .  S
C2763      C2764   1.418       .  A
C2763      S2767   1.812       .  S
C2764      C2765   1.408       .  A
C2765      C2766   1.395       .  A
C2765      H2772   1.082       .  S
C2766      S2768   1.806       .  S
S2767      H2770   1.407       .  S
S2768      H2769   1.407       .  S
C2773      C2774   1.408       .  A
C2773      C2778   1.417       .  A
C2774      C2775   1.397       .  A
C2774      H2783   1.084       .  S
C2775      C2776   1.413       .  A
C2775      S2779   1.805       .  S
C2776      C2777   1.406       .  A
C2777      C2778   1.404       .  A
C2777      H2784   1.084       .  S
C2778      S2780   1.800       .  S
S2779      H2782   1.407       .  S
S2780      H2781   1.408       .  S
C2785      C2786   1.403       .  A
C2785      C2790   1.413       .  A
C2786      C2787   1.404       .  A
C2786      H2795   1.084       .  S
C2787      C2788   1.414       .  A
C2787      S2791   1.804       .  S
C2788      C2789   1.402       .  A
C2789      C2790   1.398       .  A
C2789      H2796   1.084       .  S
C2790      S2792   1.805       .  S
S2791      H2794   1.405       .  S
S2792      H2793   1.407       .  S
C2797      C2798   1.405       .  A
C2797      C2802   1.410       .  A
C2798      C2799   1.404       .  A
C2798      H2807   1.084       .  S
C2799      C2800   1.416       .  A
C2799      S2803   1.801       .  S
C2800      C2801   1.408       .  A
C2801      C2802   1.398       .  A
C2801      H2808   1.084       .  S
C2802      S2804   1.804       .  S
S2803      H2806   1.408       .  S
S2804      H2805   1.406       .  S
C2809      C2810   1.401       .  A
C2809      C2814   1.415       .  A
C2810      C2811   1.397       .  A
C2810      H2819   1.084       .  S
C2811      C2812   1.419       .  A
C2811      S2815   1.803       .  S
C2812      C2813   1.405       .  A
C2813      C2814   1.401       .  A
C2813      H2820   1.084       .  S
C2814      S2816   1.804       .  S
S2815      H2818   1.408       .  S
S2816      H2817   1.406       .  S
C2821      C2822   1.408       .  A
C2821      C2826   1.418       .  A
C2822      C2823   1.397       .  A
C2822      H2831   1.082       .  S
C2823      C2824   1.418       .  A
C2823      S2827   1.806       .  S
C2824      C2825   1.408       .  A
C2825      C2826   1.396       .  A
C2825      H2832   1.082       .  S
C2826      S2828   1.806       .  S
S2827      H2830   1.407       .  S
S2828      H2829   1.407       .  S
C2833      C2834   1.401       .  A
C2833      C2838   1.411       .  A
C2834      C2835   1.394       .  A
C2834      H2843   1.084       .  S
C2835      C2836   1.410       .  A
C2835      S2839   1.805       .  S
C2836      C2837   1.401       .  A
C2837      C2838   1.397       .  A
C2837      H2844   1.084       .  S
C2838      S2840   1.803       .  S
S2839      H2842   1.405       .  S
S2840      H2841   1.406       .  S
C2845      C2846   1.409       .  A
C2845      C2850   1.415       .  A
C2846      C2847   1.396       .  A
C2846      H2855   1.083       .  S
C2847      C2848   1.413       .  A
C2847      S2851   1.801       .  S
C2848      C2849   1.410       .  A
C2849      C2850   1.402       .  A
C2849      H2856   1.084       .  S
C2850      S2852   1.803       .  S
S2851      H2854   1.408       .  S
S2852      H2853   1.407       .  S
C2857      C2858   1.403       .  A
C2857      C2862   1.418       .  A
C2858      C2859   1.393       .  A
C2858      H2867   1.084       .  S
C2859      C2860   1.411       .  A
C2859      S2863   1.805       .  S
C2860      C2861   1.399       .  A
C2861      C2862   1.398       .  A
C2861      H2868   1.084       .  S
C2862      S2864   1.804       .  S
S2863      H2866   1.406       .  S
S2864      H2865   1.406       .  S
C2869      C2870   1.404       .  A
C2869      C2874   1.422       .  A
C2870      C2871   1.400       .  A
C2870      H2879   1.084       .  S
C2871      C2872   1.414       .  A
C2871      S2875   1.802       .  S
C2872      C2873   1.400       .  A
C2873      C2874   1.402       .  A
C2873      H2880   1.084       .  S
C2874      S2876   1.802       .  S
S2875      H2878   1.406       .  S
S2876      H2877   1.408       .  S
C2881      C2882   1.411       .  A
C2881      C2886   1.416       .  A
C2882      C2883   1.400       .  A
C2882      H2891   1.083       .  S
C2883      C2884   1.411       .  A
C2883      S2887   1.804       .  S
C2884      C2885   1.406       .  A
C2885      C2886   1.400       .  A
C2885      H2892   1.084       .  S
C2886      S2888   1.800       .  S
S2887      H2890   1.406       .  S
S2888      H2889   1.407       .  S
C2893      C2894   1.409       .  A
C2893      C2898   1.416       .  A
C2894      C2895   1.400       .  A
C2894      H2903   1.083       .  S
C2895      C2896   1.415       .  A
C2895      S2899   1.801       .  S
C2896      C2897   1.408       .  A
C2897      C2898   1.399       .  A
C2897      H2904   1.084       .  S
C2898      S2900   1.804       .  S
S2899      H2902   1.408       .  S
S2900      H2901   1.407       .  S
C2905      C2906   1.403       .  A
C2905      C2910   1.412       .  A
C2906      C2907   1.404       .  A
C2906      H2915   1.084       .  S
C2907      C2908   1.414       .  A
C2907      S2911   1.802       .  S
C2908      C2909   1.403       .  A
C2909      C2910   1.396       .  A
C2909      H2916   1.084       .  S
C2910      S2912   1.806       .  S
S2911      H2914   1.407       .  S
S2912      H2913   1.403       .  S
C2917      C2918   1.409       .  A
C2917      C2922   1.414       .  A
C2918      C2919   1.401       .  A
C2918      H2927   1.084       .  S
C2919      C2920   1.416       .  A
C2919      S2923   1.800       .  S
C2920      C2921   1.410       .  A
C2921      C2922   1.401       .  A
C2921      H2928   1.084       .  S
C2922      S2924   1.803       .  S
S2923      H2926   1.408       .  S
S2924      H2925   1.407       .  S
C2929      C2930   1.402       .  A
C2929      C2934   1.417       .  A
C2930      C2931   1.397       .  A
C2930      H2939   1.084       .  S
C2931      C2932   1.421       .  A
C2931      S2935   1.802       .  S
C2932      C2933   1.407       .  A
C2933      C2934   1.403       .  A
C2933      H2940   1.084       .  S
C2934      S2936   1.804       .  S
S2935      H2938   1.408       .  S
S2936      H2937   1.407       .  S
C2941      C2942   1.408       .  A
C2941      C2946   1.418       .  A
C2942      C2943   1.396       .  A
C2942      H2951   1.082       .  S
C2943      C2944   1.420       .  A
C2943      S2947   1.805       .  S
C2944      C2945   1.410       .  A
C2945      C2946   1.395       .  A
C2945      H2952   1.081       .  S
C2946      S2948   1.807       .  S
S2947      H2950   1.407       .  S
S2948      H2949   1.407       .  S
C2953      C2954   1.410       .  A
C2953      C2958   1.421       .  A
C2954      C2955   1.397       .  A
C2954      H2963   1.083       .  S
C2955      C2956   1.418       .  A
C2955      S2959   1.806       .  S
C2956      C2957   1.407       .  A
C2957      C2958   1.396       .  A
C2957      H2964   1.082       .  S
C2958      S2960   1.806       .  S
S2959      H2962   1.407       .  S
S2960      H2961   1.407       .  S
C2965      C2966   1.401       .  A
C2965      C2970   1.410       .  A
C2966      C2967   1.396       .  A
C2966      H2975   1.084       .  S
C2967      C2968   1.411       .  A
C2967      S2971   1.805       .  S
C2968      C2969   1.401       .  A
C2969      C2970   1.397       .  A
C2969      H2976   1.084       .  S
C2970      S2972   1.804       .  S
S2971      H2974   1.405       .  S
S2972      H2973   1.405       .  S
C2977      C2978   1.404       .  A
C2977      C2982   1.413       .  A
C2978      C2979   1.404       .  A
C2978      H2987   1.084       .  S
C2979      C2980   1.413       .  A
C2979      S2983   1.804       .  S
C2980      C2981   1.402       .  A
C2981      C2982   1.397       .  A
C2981      H2988   1.085       .  S
C2982      S2984   1.803       .  S
S2983      H2986   1.405       .  S
S2984      H2985   1.406       .  S
C2989      C2990   1.403       .  A
C2989      C2994   1.415       .  A
C2990      C2991   1.402       .  A
C2990      H2999   1.084       .  S
C2991      C2992   1.414       .  A
C2991      S2995   1.806       .  S
C2992      C2993   1.400       .  A
C2993      C2994   1.398       .  A
C2993      H3000   1.084       .  S
C2994      S2996   1.803       .  S
S2995      H2998   1.403       .  S
S2996      H2997   1.407       .  S
C3001      C3002   1.404       .  A
C3001      C3006   1.407       .  A
C3002      C3003   1.404       .  A
C3002      H3011   1.084       .  S
C3003      C3004   1.418       .  A
C3003      S3007   1.803       .  S
C3004      C3005   1.410       .  A
C3005      C3006   1.395       .  A
C3005      H3012   1.084       .  S
C3006      S3008   1.802       .  S
S3007      H3010   1.407       .  S
S3008      H3009   1.406       .  S
C3013      C3014   1.407       .  A
C3013      C3018   1.416       .  A
C3014      C3015   1.398       .  A
C3014      H3023   1.084       .  S
C3015      C3016   1.413       .  A
C3015      S3019   1.805       .  S
C3016      C3017   1.406       .  A
C3017      C3018   1.403       .  A
C3017      H3024   1.084       .  S
C3018      S3020   1.801       .  S
S3019      H3022   1.407       .  S
S3020      H3021   1.407       .  S
C3025      C3026   1.409       .  A
C3025      C3030   1.416       .  A
C3026      C3027   1.400       .  A
C3026      H3035   1.083       .  S
C3027      C3028   1.409       .  A
C3027      S3031   1.805       .  S
C3028      C3029   1.404       .  A
C3029      C3030   1.402       .  A
C3029      H3036   1.084       .  S
C3030      S3032   1.801       .  S
S3031      H3034   1.406       .  S
S3032      H3033   1.408       .  S
C3037      C3038   1.406       .  A
C3037      C3042   1.411       .  A
C3038      C3039   1.402       .  A
C3038      H3047   1.084       .  S
C3039      C3040   1.416       .  A
C3039      S3043   1.800       .  S
C3040      C3041   1.410       .  A
C3041      C3042   1.399       .  A
C3041      H3048   1.084       .  S
C3042      S3044   1.804       .  S
S3043      H3046   1.407       .  S
S3044      H3045   1.407       .  S
C3049      C3050   1.399       .  A
C3049      C3054   1.417       .  A
C3050      C3051   1.399       .  A
C3050      H3059   1.084       .  S
C3051      C3052   1.424       .  A
C3051      S3055   1.801       .  S
C3052      C3053   1.406       .  A
C3053      C3054   1.401       .  A
C3053      H3060   1.084       .  S
C3054      S3056   1.805       .  S
S3055      H3058   1.404       .  S
S3056      H3057   1.407       .  S
C3061      C3062   1.402       .  A
C3061      C3066   1.418       .  A
C3062      C3063   1.399       .  A
C3062      H3071   1.084       .  S
C3063      C3064   1.420       .  A
C3063      S3067   1.803       .  S
C3064      C3065   1.404       .  A
C3065      C3066   1.404       .  A
C3065      H3072   1.082       .  S
C3066      S3068   1.810       .  S
S3067      H3070   1.408       .  S
S3068      H3069   1.406       .  S
C3073      C3074   1.400       .  A
C3073      C3078   1.408       .  A
C3074      C3075   1.398       .  A
C3074      H3083   1.084       .  S
C3075      C3076   1.418       .  A
C3075      S3079   1.805       .  S
C3076      C3077   1.407       .  A
C3077      C3078   1.394       .  A
C3077      H3084   1.083       .  S
C3078      S3080   1.805       .  S
S3079      H3082   1.407       .  S
S3080      H3081   1.405       .  S
C3085      C3086   1.400       .  A
C3085      C3090   1.408       .  A
C3086      C3087   1.397       .  A
C3086      H3095   1.084       .  S
C3087      C3088   1.418       .  A
C3087      S3091   1.805       .  S
C3088      C3089   1.407       .  A
C3089      C3090   1.395       .  A
C3089      H3096   1.084       .  S
C3090      S3092   1.805       .  S
S3091      H3094   1.407       .  S
S3092      H3093   1.405       .  S
C3097      C3098   1.402       .  A
C3097      C3102   1.412       .  A
C3098      C3099   1.396       .  A
C3098      H3107   1.084       .  S
C3099      C3100   1.411       .  A
C3099      S3103   1.804       .  S
C3100      C3101   1.401       .  A
C3101      C3102   1.396       .  A
C3101      H3108   1.084       .  S
C3102      S3104   1.805       .  S
S3103      H3106   1.406       .  S
S3104      H3105   1.406       .  S
C3109      C3110   1.400       .  A
C3109      C3114   1.408       .  A
C3110      C3111   1.403       .  A
C3110      H3119   1.084       .  S
C3111      C3112   1.419       .  A
C3111      S3115   1.798       .  S
C3112      C3113   1.411       .  A
C3113      C3114   1.399       .  A
C3113      H3120   1.084       .  S
C3114      S3116   1.805       .  S
S3115      H3118   1.406       .  S
S3116      H3117   1.405       .  S
C3121      C3122   1.409       .  A
C3121      C3126   1.414       .  A
C3122      C3123   1.400       .  A
C3122      H3131   1.084       .  S
C3123      C3124   1.409       .  A
C3123      S3127   1.804       .  S
C3124      C3125   1.404       .  A
C3125      C3126   1.400       .  A
C3125      H3132   1.084       .  S
C3126      S3128   1.801       .  S
S3127      H3130   1.405       .  S
S3128      H3129   1.408       .  S
C3133      C3134   1.411       .  A
C3133      C3138   1.416       .  A
C3134      C3135   1.401       .  A
C3134      H3143   1.083       .  S
C3135      C3136   1.410       .  A
C3135      S3139   1.804       .  S
C3136      C3137   1.405       .  A
C3137      C3138   1.400       .  A
C3137      H3144   1.084       .  S
C3138      S3140   1.800       .  S
S3139      H3142   1.406       .  S
S3140      H3141   1.408       .  S
C3145      C3146   1.405       .  A
C3145      C3150   1.423       .  A
C3146      C3147   1.399       .  A
C3146      H3155   1.084       .  S
C3147      C3148   1.415       .  A
C3147      S3151   1.805       .  S
C3148      C3149   1.399       .  A
C3149      C3150   1.400       .  A
C3149      H3156   1.084       .  S
C3150      S3152   1.800       .  S
S3151      H3154   1.407       .  S
S3152      H3153   1.403       .  S
C3157      C3158   1.403       .  A
C3157      C3162   1.411       .  A
C3158      C3159   1.400       .  A
C3158      H3167   1.084       .  S
C3159      C3160   1.412       .  A
C3159      S3163   1.804       .  S
C3160      C3161   1.403       .  A
C3161      C3162   1.401       .  A
C3161      H3168   1.084       .  S
C3162      S3164   1.800       .  S
S3163      H3166   1.406       .  S
S3164      H3165   1.405       .  S
C3169      C3170   1.404       .  A
C3169      C3174   1.411       .  A
C3170      C3171   1.403       .  A
C3170      H3179   1.084       .  S
C3171      C3172   1.416       .  A
C3171      S3175   1.800       .  S
C3172      C3173   1.407       .  A
C3173      C3174   1.396       .  A
C3173      H3180   1.084       .  S
C3174      S3176   1.805       .  S
S3175      H3178   1.408       .  S
S3176      H3177   1.406       .  S
C3181      C3182   1.405       .  A
C3181      C3186   1.419       .  A
C3182      C3183   1.404       .  A
C3182      H3191   1.084       .  S
C3183      C3184   1.412       .  A
C3183      S3187   1.804       .  S
C3184      C3185   1.397       .  A
C3185      C3186   1.396       .  A
C3185      H3192   1.085       .  S
C3186      S3188   1.806       .  S
S3187      H3190   1.405       .  S
S3188      H3189   1.407       .  S
C3193      C3194   1.404       .  A
C3193      C3198   1.410       .  A
C3194      C3195   1.403       .  A
C3194      H3203   1.084       .  S
C3195      C3196   1.414       .  A
C3195      S3199   1.801       .  S
C3196      C3197   1.406       .  A
C3197      C3198   1.398       .  A
C3197      H3204   1.084       .  S
C3198      S3200   1.805       .  S
S3199      H3202   1.407       .  S
S3200      H3201   1.402       .  S
C3205      C3206   1.405       .  A
C3205      C3210   1.411       .  A
C3206      C3207   1.400       .  A
C3206      H3215   1.084       .  S
C3207      C3208   1.416       .  A
C3207      S3211   1.801       .  S
C3208      C3209   1.410       .  A
C3209      C3210   1.399       .  A
C3209      H3216   1.084       .  S
C3210      S3212   1.804       .  S
S3211      H3214   1.408       .  S
S3212      H3213   1.406       .  S
C3217      C3218   1.401       .  A
C3217      C3222   1.409       .  A
C3218      C3219   1.394       .  A
C3218      H3227   1.084       .  S
C3219      C3220   1.410       .  A
C3219      S3223   1.805       .  S
C3220      C3221   1.403       .  A
C3221      C3222   1.397       .  A
C3221      H3228   1.084       .  S
C3222      S3224   1.804       .  S
S3223      H3226   1.406       .  S
S3224      H3225   1.405       .  S
C3229      C3230   1.409       .  A
C3229      C3234   1.417       .  A
C3230      C3231   1.397       .  A
C3230      H3239   1.082       .  S
C3231      C3232   1.417       .  A
C3231      S3235   1.806       .  S
C3232      C3233   1.408       .  A
C3233      C3234   1.394       .  A
C3233      H3240   1.082       .  S
C3234      S3236   1.806       .  S
S3235      H3238   1.407       .  S
S3236      H3237   1.407       .  S
C3241      C3242   1.408       .  A
C3241      C3246   1.416       .  A
C3242      C3243   1.397       .  A
C3242      H3251   1.083       .  S
C3243      C3244   1.408       .  A
C3243      S3247   1.804       .  S
C3244      C3245   1.400       .  A
C3245      C3246   1.395       .  A
C3245      H3252   1.084       .  S
C3246      S3248   1.805       .  S
S3247      H3250   1.405       .  S
S3248      H3249   1.407       .  S
C3253      C3254   1.403       .  A
C3253      C3258   1.410       .  A
C3254      C3255   1.402       .  A
C3254      H3263   1.084       .  S
C3255      C3256   1.415       .  A
C3255      S3259   1.802       .  S
C3256      C3257   1.406       .  A
C3257      C3258   1.399       .  A
C3257      H3264   1.084       .  S
C3258      S3260   1.805       .  S
S3259      H3262   1.403       .  S
S3260      H3261   1.405       .  S
C3265      C3266   1.405       .  A
C3265      C3270   1.410       .  A
C3266      C3267   1.401       .  A
C3266      H3275   1.084       .  S
C3267      C3268   1.416       .  A
C3267      S3271   1.801       .  S
C3268      C3269   1.411       .  A
C3269      C3270   1.400       .  A
C3269      H3276   1.083       .  S
C3270      S3272   1.804       .  S
S3271      H3274   1.408       .  S
S3272      H3273   1.406       .  S
C3277      C3278   1.401       .  A
C3277      C3282   1.415       .  A
C3278      C3279   1.397       .  A
C3278      H3287   1.084       .  S
C3279      C3280   1.420       .  A
C3279      S3283   1.803       .  S
C3280      C3281   1.407       .  A
C3281      C3282   1.405       .  A
C3281      H3288   1.084       .  S
C3282      S3284   1.803       .  S
S3283      H3286   1.408       .  S
S3284      H3285   1.406       .  S
C3289      C3290   1.410       .  A
C3289      C3294   1.418       .  A
C3290      C3291   1.397       .  A
C3290      H3299   1.081       .  S
C3291      C3292   1.418       .  A
C3291      S3295   1.806       .  S
C3292      C3293   1.409       .  A
C3293      C3294   1.396       .  A
C3293      H3300   1.082       .  S
C3294      S3296   1.806       .  S
S3295      H3298   1.407       .  S
S3296      H3297   1.407       .  S
C3301      C3302   1.401   1_545  A
C3301      C3306   1.410       .  A
C3302      C3303   1.395       .  A
C3302      H3311   1.084       .  S
C3303      C3304   1.416   1_565  A
C3303      S3307   1.805       .  S
C3304      C3305   1.406       .  A
C3305      C3306   1.396       .  A
C3305      H3312   1.084       .  S
C3306      S3308   1.804       .  S
S3307      H3310   1.407       .  S
S3308      H3309   1.406       .  S
C3313      C3314   1.408       .  A
C3313      C3318   1.417       .  A
C3314      C3315   1.397       .  A
C3314      H3323   1.084       .  S
C3315      C3316   1.414       .  A
C3315      S3319   1.804       .  S
C3316      C3317   1.407       .  A
C3317      C3318   1.402       .  A
C3317      H3324   1.084       .  S
C3318      S3320   1.800       .  S
S3319      H3322   1.407       .  S
S3320      H3321   1.408       .  S
C3325      C3326   1.407       .  A
C3325      C3330   1.420       .  A
C3326      C3327   1.396       .  A
C3326      H3335   1.082       .  S
C3327      C3328   1.423       .  A
C3327      S3331   1.806       .  S
C3328      C3329   1.409       .  A
C3329      C3330   1.397       .  A
C3329      H3336   1.081       .  S
C3330      S3332   1.806       .  S
S3331      H3334   1.408       .  S
S3332      H3333   1.407       .  S
C3337      C3338   1.404       .  A
C3337      C3342   1.413       .  A
C3338      C3339   1.399       .  A
C3338      H3347   1.084       .  S
C3339      C3340   1.411       .  A
C3339      S3343   1.805       .  S
C3340      C3341   1.403       .  A
C3341      C3342   1.403       .  A
C3341      H3348   1.084       .  S
C3342      S3344   1.802       .  S
S3343      H3346   1.405       .  S
S3344      H3345   1.407       .  S
C3349      C3350   1.409       .  A
C3349      C3354   1.416       .  A
C3350      C3351   1.400       .  A
C3350      H3359   1.084       .  S
C3351      C3352   1.413       .  A
C3351      S3355   1.804       .  S
C3352      C3353   1.406       .  A
C3353      C3354   1.399       .  A
C3353      H3360   1.084       .  S
C3354      S3356   1.801       .  S
S3355      H3358   1.407       .  S
S3356      H3357   1.407       .  S
C3361      C3362   1.410       .  A
C3361      C3366   1.416       .  A
C3362      C3363   1.399       .  A
C3362      H3371   1.084       .  S
C3363      C3364   1.412       .  A
C3363      S3367   1.804       .  S
C3364      C3365   1.406       .  A
C3365      C3366   1.402       .  A
C3365      H3372   1.084       .  S
C3366      S3368   1.800       .  S
S3367      H3370   1.407       .  S
S3368      H3369   1.407       .  S
C3373      C3374   1.404       .  A
C3373      C3378   1.406       .  A
C3374      C3375   1.405       .  A
C3374      H3383   1.084       .  S
C3375      C3376   1.415       .  A
C3375      S3379   1.803       .  S
C3376      C3377   1.407       .  A
C3377      C3378   1.394       .  A
C3377      H3384   1.081       .  S
C3378      S3380   1.805       .  S
S3379      H3382   1.406       .  S
S3380      H3381   1.406       .  S
C3385      C3386   1.402       .  A
C3385      C3390   1.407       .  A
C3386      C3387   1.404       .  A
C3386      H3395   1.084       .  S
C3387      C3388   1.417       .  A
C3387      S3391   1.801       .  S
C3388      C3389   1.410       .  A
C3389      C3390   1.396       .  A
C3389      H3396   1.084       .  S
C3390      S3392   1.805       .  S
S3391      H3394   1.406       .  S
S3392      H3393   1.405       .  S
C3397      C3398   1.407       .  A
C3397      C3402   1.422       .  A
C3398      C3399   1.403       .  A
C3398      H3407   1.084       .  S
C3399      C3400   1.416       .  A
C3399      S3403   1.804       .  S
C3400      C3401   1.401       .  A
C3401      C3402   1.398       .  A
C3401      H3408   1.084       .  S
C3402      S3404   1.801       .  S
S3403      H3406   1.407       .  S
S3404      H3405   1.408       .  S
C3409      C3410   1.406       .  A
C3409      C3414   1.413       .  A
C3410      C3411   1.404       .  A
C3410      H3419   1.084       .  S
C3411      C3412   1.416       .  A
C3411      S3415   1.800       .  S
C3412      C3413   1.407       .  A
C3413      C3414   1.397       .  A
C3413      H3420   1.084       .  S
C3414      S3416   1.805       .  S
S3415      H3418   1.407       .  S
S3416      H3417   1.407       .  S
C3421      C3422   1.405       .  A
C3421      C3426   1.410       .  A
C3422      C3423   1.400       .  A
C3422      H3431   1.084       .  S
C3423      C3424   1.416       .  A
C3423      S3427   1.801       .  S
C3424      C3425   1.410       .  A
C3425      C3426   1.399       .  A
C3425      H3432   1.084       .  S
C3426      S3428   1.804       .  S
S3427      H3430   1.408       .  S
S3428      H3429   1.406       .  S
C3433      C3434   1.405       .  A
C3433      C3438   1.410       .  A
C3434      C3435   1.401       .  A
C3434      H3443   1.084       .  S
C3435      C3436   1.416       .  A
C3435      S3439   1.801       .  S
C3436      C3437   1.409       .  A
C3437      C3438   1.399       .  A
C3437      H3444   1.084       .  S
C3438      S3440   1.804       .  S
S3439      H3442   1.408       .  S
S3440      H3441   1.406       .  S
C3445      C3446   1.404       .  A
C3445      C3450   1.414   1_455  A
C3446      C3447   1.394       .  A
C3446      H3455   1.084       .  S
C3447      C3448   1.409       .  A
C3447      S3451   1.805       .  S
C3448      C3449   1.400   1_455  A
C3449      C3450   1.397       .  A
C3449      H3456   1.084       .  S
C3450      S3452   1.804       .  S
S3451      H3454   1.405   1_455  S
S3452      H3453   1.406   1_655  S
C3457      C3458   1.408       .  A
C3457      C3462   1.419       .  A
C3458      C3459   1.395       .  A
C3458      H3467   1.082       .  S
C3459      C3460   1.418       .  A
C3459      S3463   1.806       .  S
C3460      C3461   1.408       .  A
C3461      C3462   1.397       .  A
C3461      H3468   1.082       .  S
C3462      S3464   1.805       .  S
S3463      H3466   1.407       .  S
S3464      H3465   1.407       .  S
C3469      C3470   1.401       .  A
C3469      C3474   1.418       .  A
C3470      C3471   1.401       .  A
C3470      H3479   1.084       .  S
C3471      C3472   1.423       .  A
C3471      S3475   1.802       .  S
C3472      C3473   1.404       .  A
C3473      C3474   1.399       .  A
C3473      H3480   1.084       .  S
C3474      S3476   1.805       .  S
S3475      H3478   1.408       .  S
S3476      H3477   1.407       .  S
C3481      C3482   1.409       .  A
C3481      C3486   1.415       .  A
C3482      C3483   1.397       .  A
C3482      H3491   1.084       .  S
C3483      C3484   1.407       .  A
C3483      S3487   1.804       .  S
C3484      C3485   1.401       .  A
C3485      C3486   1.394       .  A
C3485      H3492   1.085       .  S
C3486      S3488   1.805       .  S
S3487      H3490   1.405       .  S
S3488      H3489   1.407       .  S
C3493      C3494   1.400       .  A
C3493      C3498   1.415       .  A
C3494      C3495   1.401       .  A
C3494      H3503   1.084       .  S
C3495      C3496   1.423       .  A
C3495      S3499   1.801       .  S
C3496      C3497   1.406       .  A
C3497      C3498   1.400       .  A
C3497      H3504   1.084       .  S
C3498      S3500   1.805       .  S
S3499      H3502   1.408       .  S
S3500      H3501   1.406       .  S
C3505      C3506   1.400   1_554  A
C3505      C3510   1.409       .  A
C3506      C3507   1.398       .  A
C3506      H3515   1.084       .  S
C3507      C3508   1.418   1_556  A
C3507      S3511   1.804       .  S
C3508      C3509   1.407       .  A
C3509      C3510   1.396       .  A
C3509      H3516   1.084       .  S
C3510      S3512   1.806       .  S
S3511      H3514   1.407       .  S
S3512      H3513   1.405       .  S
C3517      C3518   1.406       .  A
C3517      C3522   1.416   1_455  A
C3518      C3519   1.398       .  A
C3518      H3527   1.084       .  S
C3519      C3520   1.410       .  A
C3519      S3523   1.806       .  S
C3520      C3521   1.400   1_455  A
C3521      C3522   1.397       .  A
C3521      H3528   1.084       .  S
C3522      S3524   1.804       .  S
S3523      H3526   1.404   1_556  S
S3524      H3525   1.407       .  S
C3529      C3530   1.400       .  A
C3529      C3534   1.414       .  A
C3530      C3531   1.401       .  A
C3530      H3539   1.084       .  S
C3531      C3532   1.421       .  A
C3531      S3535   1.803       .  S
C3532      C3533   1.404       .  A
C3533      C3534   1.401       .  A
C3533      H3540   1.084       .  S
C3534      S3536   1.803       .  S
S3535      H3538   1.408       .  S
S3536      H3537   1.406       .  S
C3541      C3542   1.398       .  A
C3541      C3546   1.408       .  A
C3542      C3543   1.396       .  A
C3542      H3551   1.084       .  S
C3543      C3544   1.417       .  A
C3543      S3547   1.801       .  S
C3544      C3545   1.408       .  A
C3545      C3546   1.397       .  A
C3545      H3552   1.084       .  S
C3546      S3548   1.805       .  S
S3547      H3550   1.407       .  S
S3548      H3549   1.405   1_655  S
C3553      C3554   1.404       .  A
C3553      C3558   1.409       .  A
C3554      C3555   1.402       .  A
C3554      H3563   1.084       .  S
C3555      C3556   1.416       .  A
C3555      S3559   1.801       .  S
C3556      C3557   1.410       .  A
C3557      C3558   1.400       .  A
C3557      H3564   1.084       .  S
C3558      S3560   1.804       .  S
S3559      H3562   1.408       .  S
S3560      H3561   1.406       .  S
C3565      C3566   1.408       .  A
C3565      C3570   1.418       .  A
C3566      C3567   1.396       .  A
C3566      H3575   1.082       .  S
C3567      C3568   1.419       .  A
C3567      S3571   1.806       .  S
C3568      C3569   1.408       .  A
C3569      C3570   1.397       .  A
C3569      H3576   1.082       .  S
C3570      S3572   1.806       .  S
S3571      H3574   1.407       .  S
S3572      H3573   1.407       .  S
C3577      C3578   1.399       .  A
C3577      C3582   1.411       .  A
C3578      C3579   1.398       .  A
C3578      H3587   1.084       .  S
C3579      C3580   1.419       .  A
C3579      S3583   1.804       .  S
C3580      C3581   1.405       .  A
C3581      C3582   1.394       .  A
C3581      H3588   1.084       .  S
C3582      S3584   1.806       .  S
S3583      H3586   1.407       .  S
S3584      H3585   1.405       .  S
C3589      C3590   1.404       .  A
C3589      C3594   1.411       .  A
C3590      C3591   1.404       .  A
C3590      H3599   1.084       .  S
C3591      C3592   1.414       .  A
C3591      S3595   1.802       .  S
C3592      C3593   1.406       .  A
C3593      C3594   1.399       .  A
C3593      H3600   1.084       .  S
C3594      S3596   1.805       .  S
S3595      H3598   1.406       .  S
S3596      H3597   1.403       .  S
C3601      C3602   1.404       .  A
C3601      C3606   1.411       .  A
C3602      C3603   1.403       .  A
C3602      H3611   1.084       .  S
C3603      C3604   1.414       .  A
C3603      S3607   1.801       .  S
C3604      C3605   1.407       .  A
C3605      C3606   1.399       .  A
C3605      H3612   1.084       .  S
C3606      S3608   1.805       .  S
S3607      H3610   1.407       .  S
S3608      H3609   1.402       .  S
C3613      C3614   1.402       .  A
C3613      C3618   1.414       .  A
C3614      C3615   1.395       .  A
C3614      H3623   1.084       .  S
C3615      C3616   1.411       .  A
C3615      S3619   1.806       .  S
C3616      C3617   1.400       .  A
C3617      C3618   1.398       .  A
C3617      H3624   1.084       .  S
C3618      S3620   1.804       .  S
S3619      H3622   1.403       .  S
S3620      H3621   1.406       .  S
C3625      C3626   1.406       .  A
C3625      C3630   1.416       .  A
C3626      C3627   1.405       .  A
C3626      H3635   1.084       .  S
C3627      C3628   1.413       .  A
C3627      S3631   1.803       .  S
C3628      C3629   1.398       .  A
C3629      C3630   1.395       .  A
C3629      H3636   1.085       .  S
C3630      S3632   1.799       .  S
S3631      H3634   1.406       .  S
S3632      H3633   1.408       .  S
C3637      C3638   1.399       .  A
C3637      C3642   1.414       .  A
C3638      C3639   1.397       .  A
C3638      H3647   1.085       .  S
C3639      C3640   1.417       .  A
C3639      S3643   1.806       .  S
C3640      C3641   1.404       .  A
C3641      C3642   1.405       .  A
C3641      H3648   1.084       .  S
C3642      S3644   1.805       .  S
S3643      H3646   1.407       .  S
S3644      H3645   1.404       .  S
C3649      C3650   1.412       .  A
C3649      C3654   1.417       .  A
C3650      C3651   1.396       .  A
C3650      H3659   1.081       .  S
C3651      C3652   1.416       .  A
C3651      S3655   1.806       .  S
C3652      C3653   1.411       .  A
C3653      C3654   1.399       .  A
C3653      H3660   1.082       .  S
C3654      S3656   1.805       .  S
S3655      H3658   1.407       .  S
S3656      H3657   1.407       .  S
C3661      C3662   1.404       .  A
C3661      C3666   1.413       .  A
C3662      C3663   1.404       .  A
C3662      H3671   1.084       .  S
C3663      C3664   1.413       .  A
C3663      S3667   1.803       .  S
C3664      C3665   1.402       .  A
C3665      C3666   1.397       .  A
C3665      H3672   1.084       .  S
C3666      S3668   1.805       .  S
S3667      H3670   1.406       .  S
S3668      H3669   1.406       .  S
C3673      C3674   1.400       .  A
C3673      C3678   1.410   1_455  A
C3674      C3675   1.396       .  A
C3674      H3683   1.084       .  S
C3675      C3676   1.414       .  A
C3675      S3679   1.805       .  S
C3676      C3677   1.403   1_455  A
C3677      C3678   1.394       .  A
C3677      H3684   1.084       .  S
C3678      S3680   1.804       .  S
S3679      H3682   1.406   1_554  S
S3680      H3681   1.406       .  S
C3685      C3686   1.411   1_556  A
C3685      C3690   1.415       .  A
C3686      C3687   1.397       .  A
C3686      H3695   1.083       .  S
C3687      C3688   1.416   1_554  A
C3687      S3691   1.805       .  S
C3688      C3689   1.412       .  A
C3689      C3690   1.397       .  A
C3689      H3696   1.081       .  S
C3690      S3692   1.805       .  S
S3691      H3694   1.407       .  S
S3692      H3693   1.407       .  S
C3697      C3698   1.403       .  A
C3697      C3702   1.416       .  A
C3698      C3699   1.403       .  A
C3698      H3707   1.084       .  S
C3699      C3700   1.413       .  A
C3699      S3703   1.804       .  S
C3700      C3701   1.400       .  A
C3701      C3702   1.398       .  A
C3701      H3708   1.084       .  S
C3702      S3704   1.805       .  S
S3703      H3706   1.405       .  S
S3704      H3705   1.407       .  S
C3709      C3710   1.399       .  A
C3709      C3714   1.415       .  A
C3710      C3711   1.400       .  A
C3710      H3719   1.084       .  S
C3711      C3712   1.422       .  A
C3711      S3715   1.802       .  S
C3712      C3713   1.405       .  A
C3713      C3714   1.400       .  A
C3713      H3720   1.084       .  S
C3714      S3716   1.805       .  S
S3715      H3718   1.408       .  S
S3716      H3717   1.407       .  S
C3721      C3722   1.401       .  A
C3721      C3726   1.417       .  A
C3722      C3723   1.399       .  A
C3722      H3731   1.084       .  S
C3723      C3724   1.422       .  A
C3723      S3727   1.802       .  S
C3724      C3725   1.405       .  A
C3725      C3726   1.399       .  A
C3725      H3732   1.084       .  S
C3726      S3728   1.805       .  S
S3727      H3730   1.408       .  S
S3728      H3729   1.407       .  S
C3733      C3734   1.404       .  A
C3733      C3738   1.420       .  A
C3734      C3735   1.403       .  A
C3734      H3743   1.082       .  S
C3735      C3736   1.419       .  A
C3735      S3739   1.811       .  S
C3736      C3737   1.403       .  A
C3737      C3738   1.401       .  A
C3737      H3744   1.083       .  S
C3738      S3740   1.802       .  S
S3739      H3742   1.406       .  S
S3740      H3741   1.408       .  S
C3745      C3746   1.399       .  A
C3745      C3750   1.411       .  A
C3746      C3747   1.399       .  A
C3746      H3755   1.085       .  S
C3747      C3748   1.419       .  A
C3747      S3751   1.805       .  S
C3748      C3749   1.407       .  A
C3749      C3750   1.402       .  A
C3749      H3756   1.084       .  S
C3750      S3752   1.805       .  S
S3751      H3754   1.407       .  S
S3752      H3753   1.405       .  S
C3757      C3758   1.409       .  A
C3757      C3762   1.416       .  A
C3758      C3759   1.399       .  A
C3758      H3767   1.083       .  S
C3759      C3760   1.415       .  A
C3759      S3763   1.804       .  S
C3760      C3761   1.409       .  A
C3761      C3762   1.403       .  A
C3761      H3768   1.083       .  S
C3762      S3764   1.800       .  S
S3763      H3766   1.407       .  S
S3764      H3765   1.408       .  S
C3769      C3770   1.404       .  A
C3769      C3774   1.406       .  A
C3770      C3771   1.405       .  A
C3770      H3779   1.084       .  S
C3771      C3772   1.420       .  A
C3771      S3775   1.803       .  S
C3772      C3773   1.411       .  A
C3773      C3774   1.396       .  A
C3773      H3780   1.081       .  S
C3774      S3776   1.805       .  S
S3775      H3778   1.407       .  S
S3776      H3777   1.406       .  S
C3781      C3782   1.396       .  A
C3781      C3786   1.414       .  A
C3782      C3783   1.396       .  A
C3782      H3791   1.085       .  S
C3783      C3784   1.421       .  A
C3783      S3787   1.806       .  S
C3784      C3785   1.406       .  A
C3785      C3786   1.404       .  A
C3785      H3792   1.083       .  S
C3786      S3788   1.804       .  S
S3787      H3790   1.407       .  S
S3788      H3789   1.406       .  S
C3793      C3794   1.405       .  A
C3793      C3798   1.423       .  A
C3794      C3795   1.399       .  A
C3794      H3803   1.084       .  S
C3795      C3796   1.415       .  A
C3795      S3799   1.805       .  S
C3796      C3797   1.400       .  A
C3797      C3798   1.400       .  A
C3797      H3804   1.084       .  S
C3798      S3800   1.802       .  S
S3799      H3802   1.407       .  S
S3800      H3801   1.408       .  S
C3805      C3806   1.405       .  A
C3805      C3810   1.412       .  A
C3806      C3807   1.399       .  A
C3806      H3815   1.084       .  S
C3807      C3808   1.416       .  A
C3807      S3811   1.801       .  S
C3808      C3809   1.411       .  A
C3809      C3810   1.401       .  A
C3809      H3816   1.083       .  S
C3810      S3812   1.804       .  S
S3811      H3814   1.408       .  S
S3812      H3813   1.406       .  S
C3817      C3818   1.407       .  A
C3817      C3822   1.413       .  A
C3818      C3819   1.400       .  A
C3818      H3827   1.084       .  S
C3819      C3820   1.416       .  A
C3819      S3823   1.800       .  S
C3820      C3821   1.410       .  A
C3821      C3822   1.400       .  A
C3821      H3828   1.083       .  S
C3822      S3824   1.804       .  S
S3823      H3826   1.408       .  S
S3824      H3825   1.407       .  S
C3829      C3830   1.400       .  A
C3829      C3834   1.417       .  A
C3830      C3831   1.400       .  A
C3830      H3839   1.084       .  S
C3831      C3832   1.423       .  A
C3831      S3835   1.802       .  S
C3832      C3833   1.405       .  A
C3833      C3834   1.400       .  A
C3833      H3840   1.084       .  S
C3834      S3836   1.805       .  S
S3835      H3838   1.408       .  S
S3836      H3837   1.407       .  S
C3841      C3842   1.405       .  A
C3841      C3846   1.415       .  A
C3842      C3843   1.395       .  A
C3842      H3851   1.084       .  S
C3843      C3844   1.409       .  A
C3843      S3847   1.805       .  S
C3844      C3845   1.399       .  A
C3845      C3846   1.396       .  A
C3845      H3852   1.084       .  S
C3846      S3848   1.804       .  S
S3847      H3850   1.405       .  S
S3848      H3849   1.407       .  S
C3853      C3854   1.399   1_554  A
C3853      C3858   1.408       .  A
C3854      C3855   1.396       .  A
C3854      H3863   1.085       .  S
C3855      C3856   1.418   1_556  A
C3855      S3859   1.805       .  S
C3856      C3857   1.408       .  A
C3857      C3858   1.397       .  A
C3857      H3864   1.084       .  S
C3858      S3860   1.805       .  S
S3859      H3862   1.407       .  S
S3860      H3861   1.405       .  S
C3865      C3866   1.407       .  A
C3865      C3870   1.420       .  A
C3866      C3867   1.403       .  A
C3866      H3875   1.084       .  S
C3867      C3868   1.411       .  A
C3867      S3871   1.805       .  S
C3868      C3869   1.399       .  A
C3869      C3870   1.398       .  A
C3869      H3876   1.084       .  S
C3870      S3872   1.806       .  S
S3871      H3874   1.405       .  S
S3872      H3873   1.407       .  S
C3877      C3878   1.398       .  A
C3877      C3882   1.409       .  A
C3878      C3879   1.395       .  A
C3878      H3887   1.085       .  S
C3879      C3880   1.418       .  A
C3879      S3883   1.805       .  S
C3880      C3881   1.407       .  A
C3881      C3882   1.397       .  A
C3881      H3888   1.084       .  S
C3882      S3884   1.805       .  S
S3883      H3886   1.407       .  S
S3884      H3885   1.404   1_554  S
C3889      C3890   1.404       .  A
C3889      C3894   1.415       .  A
C3890      C3891   1.397       .  A
C3890      H3899   1.084       .  S
C3891      C3892   1.411       .  A
C3891      S3895   1.806       .  S
C3892      C3893   1.404       .  A
C3893      C3894   1.407       .  A
C3893      H3900   1.084       .  S
C3894      S3896   1.803       .  S
S3895      H3898   1.407       .  S
S3896      H3897   1.406       .  S
C3901      C3902   1.404       .  A
C3901      C3906   1.413       .  A
C3902      C3903   1.400       .  A
C3902      H3911   1.082       .  S
C3903      C3904   1.418       .  A
C3903      S3907   1.800       .  S
C3904      C3905   1.414       .  A
C3905      C3906   1.404       .  A
C3905      H3912   1.083       .  S
C3906      S3908   1.801       .  S
S3907      H3910   1.407       .  S
S3908      H3909   1.408       .  S
C3913      C3914   1.411       .  A
C3913      C3918   1.420       .  A
C3914      C3915   1.396       .  A
C3914      H3923   1.081       .  S
C3915      C3916   1.407       .  A
C3915      S3919   1.802       .  S
C3916      C3917   1.400       .  A
C3917      C3918   1.403       .  A
C3917      H3924   1.085       .  S
C3918      S3920   1.793       .  S
S3919      H3922   1.403       .  S
S3920      H3921   1.407       .  S
C3925      C3926   1.401       .  A
C3925      C3930   1.415       .  A
C3926      C3927   1.399       .  A
C3926      H3935   1.084       .  S
C3927      C3928   1.420       .  A
C3927      S3931   1.803       .  S
C3928      C3929   1.406       .  A
C3929      C3930   1.402       .  A
C3929      H3936   1.084       .  S
C3930      S3932   1.804       .  S
S3931      H3934   1.408       .  S
S3932      H3933   1.406       .  S
C3937      C3938   1.406       .  A
C3937      C3942   1.418       .  A
C3938      C3939   1.395       .  A
C3938      H3947   1.082       .  S
C3939      C3940   1.422       .  A
C3939      S3943   1.805       .  S
C3940      C3941   1.409       .  A
C3941      C3942   1.397       .  A
C3941      H3948   1.082       .  S
C3942      S3944   1.806       .  S
S3943      H3946   1.407       .  S
S3944      H3945   1.407       .  S
C3949      C3950   1.409       .  A
C3949      C3954   1.419       .  A
C3950      C3951   1.400       .  A
C3950      H3959   1.082       .  S
C3951      C3952   1.420       .  A
C3951      S3955   1.806       .  S
C3952      C3953   1.406       .  A
C3953      C3954   1.394       .  A
C3953      H3960   1.082       .  S
C3954      S3956   1.802       .  S
S3955      H3958   1.407       .  S
S3956      H3957   1.407       .  S
C3961      C3962   1.405       .  A
C3961      C3966   1.416   1_455  A
C3962      C3963   1.395       .  A
C3962      H3971   1.083       .  S
C3963      C3964   1.410       .  A
C3963      S3967   1.805       .  S
C3964      C3965   1.400   1_455  A
C3965      C3966   1.399       .  A
C3965      H3972   1.084       .  S
C3966      S3968   1.804       .  S
S3967      H3970   1.406       .  S
S3968      H3969   1.406   1_655  S
C3973      C3974   1.403       .  A
C3973      C3978   1.408       .  A
C3974      C3975   1.405       .  A
C3974      H3983   1.084       .  S
C3975      C3976   1.418       .  A
C3975      S3979   1.802       .  S
C3976      C3977   1.410       .  A
C3977      C3978   1.398       .  A
C3977      H3984   1.084       .  S
C3978      S3980   1.805       .  S
S3979      H3982   1.407       .  S
S3980      H3981   1.405       .  S
C3985      C3986   1.404       .  A
C3985      C3990   1.419       .  A
C3986      C3987   1.402       .  A
C3986      H3995   1.084       .  S
C3987      C3988   1.413       .  A
C3987      S3991   1.804       .  S
C3988      C3989   1.399       .  A
C3989      C3990   1.399       .  A
C3989      H3996   1.084       .  S
C3990      S3992   1.804       .  S
S3991      H3994   1.405       .  S
S3992      H3993   1.408       .  S
C3997      C3998   1.407       .  A
C3997      C4002   1.414       .  A
C3998      C3999   1.398       .  A
C3998      H4007   1.084       .  S
C3999      C4000   1.412       .  A
C3999      S4003   1.804       .  S
C4000      C4001   1.405       .  A
C4001      C4002   1.401       .  A
C4001      H4008   1.084       .  S
C4002      S4004   1.801       .  S
S4003      H4006   1.406       .  S
S4004      H4005   1.407       .  S
C4009      C4010   1.401       .  A
C4009      C4014   1.410       .  A
C4010      C4011   1.403       .  A
C4010      H4019   1.084       .  S
C4011      C4012   1.419       .  A
C4011      S4015   1.800       .  S
C4012      C4013   1.411       .  A
C4013      C4014   1.400       .  A
C4013      H4020   1.083       .  S
C4014      S4016   1.806       .  S
S4015      H4018   1.406       .  S
S4016      H4017   1.402       .  S
C4021      C4022   1.399       .  A
C4021      C4026   1.414       .  A
C4022      C4023   1.397       .  A
C4022      H4031   1.085       .  S
C4023      C4024   1.417       .  A
C4023      S4027   1.806       .  S
C4024      C4025   1.404       .  A
C4025      C4026   1.405       .  A
C4025      H4032   1.084       .  S
C4026      S4028   1.804       .  S
S4027      H4030   1.407       .  S
S4028      H4029   1.404       .  S
C4033      C4034   1.400       .  A
C4033      C4038   1.412       .  A
C4034      C4035   1.398       .  A
C4034      H4043   1.085       .  S
C4035      C4036   1.417       .  A
C4035      S4039   1.805       .  S
C4036      C4037   1.406       .  A
C4037      C4038   1.403       .  A
C4037      H4044   1.084       .  S
C4038      S4040   1.806       .  S
S4039      H4042   1.407       .  S
S4040      H4041   1.404       .  S
C4045      C4046   1.400       .  A
C4045      C4050   1.412       .  A
C4046      C4047   1.400       .  A
C4046      H4055   1.085       .  S
C4047      C4048   1.418       .  A
C4047      S4051   1.805       .  S
C4048      C4049   1.407       .  A
C4049      C4050   1.403       .  A
C4049      H4056   1.084       .  S
C4050      S4052   1.805       .  S
S4051      H4054   1.407       .  S
S4052      H4053   1.405       .  S
C4057      C4058   1.409       .  A
C4057      C4062   1.419       .  A
C4058      C4059   1.398       .  A
C4058      H4067   1.083       .  S
C4059      C4060   1.408       .  A
C4059      S4063   1.805       .  S
C4060      C4061   1.401       .  A
C4061      C4062   1.402       .  A
C4061      H4068   1.084       .  S
C4062      S4064   1.803       .  S
S4063      H4066   1.405       .  S
S4064      H4065   1.407       .  S
C4069      C4070   1.403       .  A
C4069      C4074   1.415       .  A
C4070      C4071   1.396       .  A
C4070      H4079   1.084       .  S
C4071      C4072   1.411       .  A
C4071      S4075   1.805       .  S
C4072      C4073   1.403       .  A
C4073      C4074   1.404       .  A
C4073      H4080   1.084       .  S
C4074      S4076   1.803       .  S
S4075      H4078   1.407       .  S
S4076      H4077   1.406       .  S
C4081      C4082   1.403       .  A
C4081      C4086   1.413       .  A
C4082      C4083   1.404       .  A
C4082      H4091   1.084       .  S
C4083      C4084   1.414       .  A
C4083      S4087   1.803       .  S
C4084      C4085   1.402       .  A
C4085      C4086   1.397       .  A
C4085      H4092   1.084       .  S
C4086      S4088   1.806       .  S
S4087      H4090   1.407       .  S
S4088      H4089   1.403       .  S
C4093      C4094   1.405   1_545  A
C4093      C4098   1.418       .  A
C4094      C4095   1.392       .  A
C4094      H4103   1.084       .  S
C4095      C4096   1.409   1_565  A
C4095      S4099   1.806       .  S
C4096      C4097   1.400       .  A
C4097      C4098   1.400       .  A
C4097      H4104   1.084       .  S
C4098      S4100   1.804       .  S
S4099      H4102   1.405       .  S
S4100      H4101   1.407       .  S
C4105      C4106   1.406       .  A
C4105      C4110   1.419       .  A
C4106      C4107   1.395       .  A
C4106      H4115   1.082       .  S
C4107      C4108   1.420       .  A
C4107      S4111   1.804       .  S
C4108      C4109   1.408       .  A
C4109      C4110   1.398       .  A
C4109      H4116   1.082       .  S
C4110      S4112   1.805       .  S
S4111      H4114   1.406       .  S
S4112      H4113   1.407       .  S
C4117      C4118   1.407       .  A
C4117      C4122   1.416       .  A
C4118      C4119   1.398       .  A
C4118      H4127   1.084       .  S
C4119      C4120   1.408       .  A
C4119      S4123   1.804       .  S
C4120      C4121   1.399       .  A
C4121      C4122   1.392       .  A
C4121      H4128   1.085       .  S
C4122      S4124   1.806       .  S
S4123      H4126   1.405       .  S
S4124      H4125   1.407       .  S
C4129      C4130   1.400       .  A
C4129      C4134   1.415       .  A
C4130      C4131   1.397       .  A
C4130      H4139   1.084       .  S
C4131      C4132   1.419       .  A
C4131      S4135   1.803       .  S
C4132      C4133   1.405       .  A
C4133      C4134   1.402       .  A
C4133      H4140   1.084       .  S
C4134      S4136   1.804       .  S
S4135      H4138   1.408       .  S
S4136      H4137   1.406       .  S
C4141      C4142   1.401       .  A
C4141      C4146   1.415       .  A
C4142      C4143   1.397       .  A
C4142      H4151   1.084       .  S
C4143      C4144   1.419       .  A
C4143      S4147   1.803       .  S
C4144      C4145   1.406       .  A
C4145      C4146   1.404       .  A
C4145      H4152   1.084       .  S
C4146      S4148   1.804       .  S
S4147      H4150   1.408       .  S
S4148      H4149   1.406       .  S
C4153      C4154   1.408       .  A
C4153      C4158   1.418       .  A
C4154      C4155   1.396       .  A
C4154      H4163   1.082       .  S
C4155      C4156   1.418       .  A
C4155      S4159   1.806       .  S
C4156      C4157   1.408       .  A
C4157      C4158   1.396       .  A
C4157      H4164   1.082       .  S
C4158      S4160   1.806       .  S
S4159      H4162   1.407       .  S
S4160      H4161   1.407       .  S
C4165      C4166   1.400       .  A
C4165      C4170   1.420       .  A
C4166      C4167   1.398       .  A
C4166      H4175   1.084       .  S
C4167      C4168   1.420       .  A
C4167      S4171   1.797       .  S
C4168      C4169   1.403       .  A
C4169      C4170   1.404       .  A
C4169      H4176   1.082       .  S
C4170      S4172   1.810       .  S
S4171      H4174   1.404       .  S
S4172      H4173   1.407       .  S
C4177      C4178   1.407       .  A
C4177      C4182   1.412       .  A
C4178      C4179   1.400       .  A
C4178      H4187   1.084       .  S
C4179      C4180   1.416       .  A
C4179      S4183   1.800       .  S
C4180      C4181   1.411       .  A
C4181      C4182   1.402       .  A
C4181      H4188   1.083       .  S
C4182      S4184   1.803       .  S
S4183      H4186   1.408       .  S
S4184      H4185   1.406       .  S
C4189      C4190   1.408       .  A
C4189      C4194   1.416       .  A
C4190      C4191   1.395       .  A
C4190      H4199   1.083       .  S
C4191      C4192   1.407       .  A
C4191      S4195   1.804       .  S
C4192      C4193   1.401       .  A
C4193      C4194   1.395       .  A
C4193      H4200   1.085       .  S
C4194      S4196   1.805       .  S
S4195      H4198   1.405       .  S
S4196      H4197   1.407       .  S
C4201      C4202   1.406       .  A
C4201      C4206   1.419       .  A
C4202      C4203   1.403       .  A
C4202      H4211   1.084       .  S
C4203      C4204   1.412       .  A
C4203      S4207   1.804       .  S
C4204      C4205   1.400       .  A
C4205      C4206   1.399       .  A
C4205      H4212   1.085       .  S
C4206      S4208   1.805       .  S
S4207      H4210   1.404       .  S
S4208      H4209   1.407       .  S
C4213      C4214   1.407       .  A
C4213      C4218   1.415       .  A
C4214      C4215   1.396       .  A
C4214      H4223   1.084       .  S
C4215      C4216   1.407       .  A
C4215      S4219   1.804       .  S
C4216      C4217   1.400       .  A
C4217      C4218   1.395       .  A
C4217      H4224   1.085       .  S
C4218      S4220   1.805       .  S
S4219      H4222   1.405       .  S
S4220      H4221   1.407       .  S
C4225      C4226   1.410       .  A
C4225      C4230   1.419       .  A
C4226      C4227   1.396       .  A
C4226      H4235   1.083       .  S
C4227      C4228   1.408       .  A
C4227      S4231   1.807       .  S
C4228      C4229   1.403       .  A
C4229      C4230   1.404       .  A
C4229      H4236   1.084       .  S
C4230      S4232   1.803       .  S
S4231      H4234   1.402       .  S
S4232      H4233   1.407       .  S
C4237      C4238   1.400       .  A
C4237      C4242   1.413       .  A
C4238      C4239   1.399       .  A
C4238      H4247   1.084       .  S
C4239      C4240   1.419       .  A
C4239      S4243   1.804       .  S
C4240      C4241   1.405       .  A
C4241      C4242   1.403       .  A
C4241      H4248   1.084       .  S
C4242      S4244   1.804       .  S
S4243      H4246   1.408       .  S
S4244      H4245   1.406       .  S
C4249      C4250   1.403       .  A
C4249      C4254   1.414       .  A
C4250      C4251   1.399       .  A
C4250      H4259   1.084       .  S
C4251      C4252   1.413       .  A
C4251      S4255   1.807       .  S
C4252      C4253   1.398       .  A
C4253      C4254   1.393       .  A
C4253      H4260   1.085       .  S
C4254      S4256   1.801       .  S
S4255      H4258   1.401       .  S
S4256      H4257   1.406   1_556  S
C4261      C4262   1.399       .  A
C4261      C4266   1.410   1_554  A
C4262      C4263   1.398       .  A
C4262      H4271   1.084       .  S
C4263      C4264   1.419       .  A
C4263      S4267   1.804       .  S
C4264      C4265   1.406   1_554  A
C4265      C4266   1.394       .  A
C4265      H4272   1.084       .  S
C4266      S4268   1.806       .  S
S4267      H4270   1.407       .  S
S4268      H4269   1.405       .  S
C4273      C4274   1.406       .  A
C4273      C4278   1.413       .  A
C4274      C4275   1.402       .  A
C4274      H4283   1.084       .  S
C4275      C4276   1.417       .  A
C4275      S4279   1.801       .  S
C4276      C4277   1.408       .  A
C4277      C4278   1.397       .  A
C4277      H4284   1.083       .  S
C4278      S4280   1.805       .  S
S4279      H4282   1.407       .  S
S4280      H4281   1.407       .  S
C4285      C4286   1.406       .  A
C4285      C4290   1.419       .  A
C4286      C4287   1.393       .  A
C4286      H4295   1.082       .  S
C4287      C4288   1.417       .  A
C4287      S4291   1.799       .  S
C4288      C4289   1.410       .  A
C4289      C4290   1.398       .  A
C4289      H4296   1.082       .  S
C4290      S4292   1.805       .  S
S4291      H4294   1.407       .  S
S4292      H4293   1.407       .  S
C4297      C4298   1.403       .  A
C4297      C4302   1.410       .  A
C4298      C4299   1.404       .  A
C4298      H4307   1.084       .  S
C4299      C4300   1.416       .  A
C4299      S4303   1.802       .  S
C4300      C4301   1.404       .  A
C4301      C4302   1.396       .  A
C4301      H4308   1.084       .  S
C4302      S4304   1.803       .  S
S4303      H4306   1.406       .  S
S4304      H4305   1.406       .  S
C4309      C4310   1.402       .  A
C4309      C4314   1.415       .  A
C4310      C4311   1.397       .  A
C4310      H4319   1.085       .  S
C4311      C4312   1.414       .  A
C4311      S4315   1.805       .  S
C4312      C4313   1.404       .  A
C4313      C4314   1.404       .  A
C4313      H4320   1.084       .  S
C4314      S4316   1.806       .  S
S4315      H4318   1.406       .  S
S4316      H4317   1.400       .  S
C4321      C4322   1.408       .  A
C4321      C4326   1.416       .  A
C4322      C4323   1.398       .  A
C4322      H4331   1.084       .  S
C4323      C4324   1.413       .  A
C4323      S4327   1.805       .  S
C4324      C4325   1.406       .  A
C4325      C4326   1.402       .  A
C4325      H4332   1.084       .  S
C4326      S4328   1.800       .  S
S4327      H4330   1.407       .  S
S4328      H4329   1.407       .  S
C4333      C4334   1.403       .  A
C4333      C4338   1.411       .  A
C4334      C4335   1.402       .  A
C4334      H4343   1.084       .  S
C4335      C4336   1.415       .  A
C4335      S4339   1.803       .  S
C4336      C4337   1.404       .  A
C4337      C4338   1.399       .  A
C4337      H4344   1.084       .  S
C4338      S4340   1.805       .  S
S4339      H4342   1.402       .  S
S4340      H4341   1.405       .  S
C4345      C4346   1.405       .  A
C4345      C4350   1.410       .  A
C4346      C4347   1.400       .  A
C4346      H4355   1.084       .  S
C4347      C4348   1.416       .  A
C4347      S4351   1.800       .  S
C4348      C4349   1.411       .  A
C4349      C4350   1.400       .  A
C4349      H4356   1.084       .  S
C4350      S4352   1.803       .  S
S4351      H4354   1.408       .  S
S4352      H4353   1.406       .  S
C4357      C4358   1.405       .  A
C4357      C4362   1.413       .  A
C4358      C4359   1.406       .  A
C4358      H4367   1.084       .  S
C4359      C4360   1.414       .  A
C4359      S4363   1.803       .  S
C4360      C4361   1.403       .  A
C4361      C4362   1.396       .  A
C4361      H4368   1.084       .  S
C4362      S4364   1.803       .  S
S4363      H4366   1.406       .  S
S4364      H4365   1.407       .  S
C4369      C4370   1.405       .  A
C4369      C4374   1.422       .  A
C4370      C4371   1.402       .  A
C4370      H4379   1.083       .  S
C4371      C4372   1.418       .  A
C4371      S4375   1.805       .  S
C4372      C4373   1.402       .  A
C4373      C4374   1.397       .  A
C4373      H4380   1.084       .  S
C4374      S4376   1.802       .  S
S4375      H4378   1.407       .  S
S4376      H4377   1.408       .  S
C4381      C4382   1.406       .  A
C4381      C4386   1.420       .  A
C4382      C4383   1.403       .  A
C4382      H4391   1.084       .  S
C4383      C4384   1.418       .  A
C4383      S4387   1.804       .  S
C4384      C4385   1.403       .  A
C4385      C4386   1.397       .  A
C4385      H4392   1.084       .  S
C4386      S4388   1.803       .  S
S4387      H4390   1.407       .  S
S4388      H4389   1.408       .  S
C4393      C4394   1.404       .  A
C4393      C4398   1.412       .  A
C4394      C4395   1.405       .  A
C4394      H4403   1.084       .  S
C4395      C4396   1.415       .  A
C4395      S4399   1.801       .  S
C4396      C4397   1.405       .  A
C4397      C4398   1.398       .  A
C4397      H4404   1.084       .  S
C4398      S4400   1.805       .  S
S4399      H4402   1.407       .  S
S4400      H4401   1.400       .  S
C4405      C4406   1.405       .  A
C4405      C4410   1.416       .  A
C4406      C4407   1.399       .  A
C4406      H4415   1.084       .  S
C4407      C4408   1.412       .  A
C4407      S4411   1.806       .  S
C4408      C4409   1.403       .  A
C4409      C4410   1.405       .  A
C4409      H4416   1.084       .  S
C4410      S4412   1.801       .  S
S4411      H4414   1.406       .  S
S4412      H4413   1.406       .  S
C4417      C4418   1.404       .  A
C4417      C4422   1.414       .  A
C4418      C4419   1.406       .  A
C4418      H4427   1.084       .  S
C4419      C4420   1.415       .  A
C4419      S4423   1.806       .  S
C4420      C4421   1.398       .  A
C4421      C4422   1.395       .  A
C4421      H4428   1.085       .  S
C4422      S4424   1.802       .  S
S4423      H4426   1.402       .  S
S4424      H4425   1.406       .  S
C4429      C4430   1.406       .  A
C4429      C4434   1.419       .  A
C4430      C4431   1.392       .  A
C4430      H4439   1.082       .  S
C4431      C4432   1.417       .  A
C4431      S4435   1.799       .  S
C4432      C4433   1.410       .  A
C4433      C4434   1.399       .  A
C4433      H4440   1.082       .  S
C4434      S4436   1.805       .  S
S4435      H4438   1.407       .  S
S4436      H4437   1.407       .  S
C4441      C4442   1.399       .  A
C4441      C4446   1.421       .  A
C4442      C4443   1.395       .  A
C4442      H4451   1.084       .  S
C4443      C4444   1.410       .  A
C4443      S4447   1.788       .  S
C4444      C4445   1.401       .  A
C4445      C4446   1.404       .  A
C4445      H4452   1.084       .  S
C4446      S4448   1.805       .  S
S4447      H4450   1.406       .  S
S4448      H4449   1.407       .  S
C4453      C4454   1.409   1_565  A
C4453      C4458   1.415       .  A
C4454      C4455   1.398       .  A
C4454      H4463   1.084       .  S
C4455      C4456   1.406       .  A
C4455      S4459   1.804       .  S
C4456      C4457   1.399   1_545  A
C4457      C4458   1.391       .  A
C4457      H4464   1.085       .  S
C4458      S4460   1.802       .  S
S4459      H4462   1.405       .  S
S4460      H4461   1.407       .  S
C4465      C4466   1.410       .  A
C4465      C4470   1.415       .  A
C4466      C4467   1.398       .  A
C4466      H4475   1.084       .  S
C4467      C4468   1.410       .  A
C4467      S4471   1.804       .  S
C4468      C4469   1.406       .  A
C4469      C4470   1.398       .  A
C4469      H4476   1.084       .  S
C4470      S4472   1.801       .  S
S4471      H4474   1.406       .  S
S4472      H4473   1.407       .  S
C4477      C4478   1.407       .  A
C4477      C4482   1.414       .  A
C4478      C4479   1.397       .  A
C4478      H4487   1.084       .  S
C4479      C4480   1.409       .  A
C4479      S4483   1.805       .  S
C4480      C4481   1.404       .  A
C4481      C4482   1.403       .  A
C4481      H4488   1.084       .  S
C4482      S4484   1.801       .  S
S4483      H4486   1.403       .  S
S4484      H4485   1.407       .  S
C4489      C4490   1.402       .  A
C4489      C4494   1.416   1_455  A
C4490      C4491   1.392       .  A
C4490      H4499   1.084       .  S
C4491      C4492   1.409       .  A
C4491      S4495   1.806       .  S
C4492      C4493   1.398   1_455  A
C4493      C4494   1.396       .  A
C4493      H4500   1.084       .  S
C4494      S4496   1.805       .  S
S4495      H4498   1.405   1_565  S
S4496      H4497   1.407       .  S
C4501      C4502   1.405       .  A
C4501      C4506   1.423       .  A
C4502      C4503   1.401       .  A
C4502      H4511   1.084       .  S
C4503      C4504   1.412       .  A
C4503      S4507   1.803       .  S
C4504      C4505   1.400       .  A
C4505      C4506   1.402       .  A
C4505      H4512   1.084       .  S
C4506      S4508   1.802       .  S
S4507      H4510   1.406       .  S
S4508      H4509   1.408       .  S
C4513      C4514   1.407       .  A
C4513      C4518   1.420       .  A
C4514      C4515   1.410       .  A
C4514      H4523   1.082       .  S
C4515      C4516   1.417       .  A
C4515      S4519   1.808       .  S
C4516      C4517   1.403       .  A
C4517      C4518   1.397       .  A
C4517      H4524   1.084       .  S
C4518      S4520   1.803       .  S
S4519      H4522   1.407       .  S
S4520      H4521   1.408       .  S
C4525      C4526   1.406       .  A
C4525      C4530   1.416       .  A
C4526      C4527   1.395       .  A
C4526      H4535   1.084       .  S
C4527      C4528   1.412       .  A
C4527      S4531   1.805       .  S
C4528      C4529   1.405       .  A
C4529      C4530   1.402       .  A
C4529      H4536   1.084       .  S
C4530      S4532   1.801       .  S
S4531      H4534   1.407       .  S
S4532      H4533   1.407       .  S
C4537      C4538   1.406   1_545  A
C4537      C4542   1.418       .  A
C4538      C4539   1.396       .  A
C4538      H4547   1.082       .  S
C4539      C4540   1.420       .  A
C4539      S4543   1.800       .  S
C4540      C4541   1.410   1_565  A
C4541      C4542   1.397       .  A
C4541      H4548   1.081       .  S
C4542      S4544   1.806       .  S
S4543      H4546   1.406       .  S
S4544      H4545   1.407       .  S
C4549      C4550   1.407       .  A
C4549      C4554   1.412       .  A
C4550      C4551   1.401       .  A
C4550      H4559   1.084       .  S
C4551      C4552   1.416       .  A
C4551      S4555   1.801       .  S
C4552      C4553   1.409       .  A
C4553      C4554   1.397       .  A
C4553      H4560   1.084       .  S
C4554      S4556   1.805       .  S
S4555      H4558   1.407       .  S
S4556      H4557   1.407       .  S
C4561      C4562   1.395       .  A
C4561      C4566   1.415       .  A
C4562      C4563   1.391       .  A
C4562      H4571   1.085       .  S
C4563      C4564   1.413       .  A
C4563      S4567   1.787       .  S
C4564      C4565   1.406       .  A
C4565      C4566   1.409       .  A
C4565      H4572   1.084       .  S
C4566      S4568   1.805       .  S
S4567      H4570   1.407       .  S
S4568      H4569   1.403       .  S
C4573      C4574   1.399       .  A
C4573      C4578   1.412       .  A
C4574      C4575   1.396       .  A
C4574      H4583   1.084       .  S
C4575      C4576   1.414       .  A
C4575      S4579   1.805   1_556  S
C4576      C4577   1.401       .  A
C4577      C4578   1.398       .  A
C4577      H4584   1.084       .  S
C4578      S4580   1.804       .  S
S4579      H4582   1.406       .  S
S4580      H4581   1.405       .  S
C4585      C4586   1.405       .  A
C4585      C4590   1.411       .  A
C4586      C4587   1.400       .  A
C4586      H4595   1.084       .  S
C4587      C4588   1.416       .  A
C4587      S4591   1.800       .  S
C4588      C4589   1.410       .  A
C4589      C4590   1.399       .  A
C4589      H4596   1.084       .  S
C4590      S4592   1.804       .  S
S4591      H4594   1.408       .  S
S4592      H4593   1.406       .  S
C4597      C4598   1.403       .  A
C4597      C4602   1.411       .  A
C4598      C4599   1.403       .  A
C4598      H4607   1.084       .  S
C4599      C4600   1.414       .  A
C4599      S4603   1.802       .  S
C4600      C4601   1.404       .  A
C4601      C4602   1.398       .  A
C4601      H4608   1.084       .  S
C4602      S4604   1.805       .  S
S4603      H4606   1.407       .  S
S4604      H4605   1.405       .  S
C4609      C4610   1.403       .  A
C4609      C4614   1.413       .  A
C4610      C4611   1.399       .  A
C4610      H4619   1.084   1_556  S
C4611      C4612   1.413       .  A
C4611      S4615   1.808       .  S
C4612      C4613   1.398       .  A
C4613      C4614   1.394       .  A
C4613      H4620   1.085       .  S
C4614      S4616   1.802       .  S
S4615      H4618   1.402   1_556  S
S4616      H4617   1.406       .  S
C4621      C4622   1.399       .  A
C4621      C4626   1.415       .  A
C4622      C4623   1.399       .  A
C4622      H4631   1.084       .  S
C4623      C4624   1.421       .  A
C4623      S4627   1.803       .  S
C4624      C4625   1.405       .  A
C4625      C4626   1.401       .  A
C4625      H4632   1.084       .  S
C4626      S4628   1.804       .  S
S4627      H4630   1.408       .  S
S4628      H4629   1.406       .  S
C4633      C4634   1.405       .  A
C4633      C4638   1.419       .  A
C4634      C4635   1.402       .  A
C4634      H4643   1.084       .  S
C4635      C4636   1.414       .  A
C4635      S4639   1.804       .  S
C4636      C4637   1.400       .  A
C4637      C4638   1.396       .  A
C4637      H4644   1.084       .  S
C4638      S4640   1.804       .  S
S4639      H4642   1.406       .  S
S4640      H4641   1.408       .  S
C4645      C4646   1.406       .  A
C4645      C4650   1.421       .  A
C4646      C4647   1.402       .  A
C4646      H4655   1.084       .  S
C4647      C4648   1.415       .  A
C4647      S4651   1.804       .  S
C4648      C4649   1.400       .  A
C4649      C4650   1.396       .  A
C4649      H4656   1.084       .  S
C4650      S4652   1.803       .  S
S4651      H4654   1.407       .  S
S4652      H4653   1.408       .  S
C4657      C4658   1.402       .  A
C4657      C4662   1.408       .  A
C4658      C4659   1.404       .  A
C4658      H4667   1.084       .  S
C4659      C4660   1.419       .  A
C4659      S4663   1.802       .  S
C4660      C4661   1.410       .  A
C4661      C4662   1.397       .  A
C4661      H4668   1.084       .  S
C4662      S4664   1.805       .  S
S4663      H4666   1.407       .  S
S4664      H4665   1.405       .  S
C4669      C4670   1.406       .  A
C4669      C4674   1.413       .  A
C4670      C4671   1.404       .  A
C4670      H4679   1.084       .  S
C4671      C4672   1.416       .  A
C4671      S4675   1.800       .  S
C4672      C4673   1.408       .  A
C4673      C4674   1.397       .  A
C4673      H4680   1.084       .  S
C4674      S4676   1.805       .  S
S4675      H4678   1.407       .  S
S4676      H4677   1.407       .  S
C4681      C4682   1.405       .  A
C4681      C4686   1.420       .  A
C4682      C4683   1.403       .  A
C4682      H4691   1.084       .  S
C4683      C4684   1.415       .  A
C4683      S4687   1.804       .  S
C4684      C4685   1.401       .  A
C4685      C4686   1.398       .  A
C4685      H4692   1.084       .  S
C4686      S4688   1.803       .  S
S4687      H4690   1.407       .  S
S4688      H4689   1.408       .  S
C4693      C4694   1.404       .  A
C4693      C4698   1.410       .  A
C4694      C4695   1.401       .  A
C4694      H4703   1.084       .  S
C4695      C4696   1.414       .  A
C4695      S4699   1.801       .  S
C4696      C4697   1.407       .  A
C4697      C4698   1.400       .  A
C4697      H4704   1.084       .  S
C4698      S4700   1.805       .  S
S4699      H4702   1.407       .  S
S4700      H4701   1.402       .  S
C4705      C4706   1.403       .  A
C4705      C4710   1.411       .  A
C4706      C4707   1.403       .  A
C4706      H4715   1.084       .  S
C4707      C4708   1.415       .  A
C4707      S4711   1.804       .  S
C4708      C4709   1.404       .  A
C4709      C4710   1.398       .  A
C4709      H4716   1.084       .  S
C4710      S4712   1.805       .  S
S4711      H4714   1.402       .  S
S4712      H4713   1.406       .  S
C4717      C4718   1.400       .  A
C4717      C4722   1.414       .  A
C4718      C4719   1.400       .  A
C4718      H4727   1.084       .  S
C4719      C4720   1.423       .  A
C4719      S4723   1.801       .  S
C4720      C4721   1.405       .  A
C4721      C4722   1.400       .  A
C4721      H4728   1.084       .  S
C4722      S4724   1.801       .  S
S4723      H4726   1.408       .  S
S4724      H4725   1.407       .  S
C4729      C4730   1.404       .  A
C4729      C4734   1.409       .  A
C4730      C4731   1.401       .  A
C4730      H4739   1.084       .  S
C4731      C4732   1.415       .  A
C4731      S4735   1.801       .  S
C4732      C4733   1.409       .  A
C4733      C4734   1.398       .  A
C4733      H4740   1.084       .  S
C4734      S4736   1.805       .  S
S4735      H4738   1.408       .  S
S4736      H4737   1.406       .  S
C4741      C4742   1.400       .  A
C4741      C4746   1.410       .  A
C4742      C4743   1.398       .  A
C4742      H4751   1.084       .  S
C4743      C4744   1.417       .  A
C4743      S4747   1.804       .  S
C4744      C4745   1.405       .  A
C4745      C4746   1.393       .  A
C4745      H4752   1.084       .  S
C4746      S4748   1.806       .  S
S4747      H4750   1.407       .  S
S4748      H4749   1.406       .  S
C4753      C4754   1.399       .  A
C4753      C4758   1.407       .  A
C4754      C4755   1.393       .  A
C4754      H4763   1.085       .  S
C4755      C4756   1.416       .  A
C4755      S4759   1.800       .  S
C4756      C4757   1.410       .  A
C4757      C4758   1.399       .  A
C4757      H4764   1.084       .  S
C4758      S4760   1.804       .  S
S4759      H4762   1.407       .  S
S4760      H4761   1.405       .  S
C4765      C4766   1.408       .  A
C4765      C4770   1.419       .  A
C4766      C4767   1.395       .  A
C4766      H4775   1.082       .  S
C4767      C4768   1.418       .  A
C4767      S4771   1.806       .  S
C4768      C4769   1.408       .  A
C4769      C4770   1.397       .  A
C4769      H4776   1.082       .  S
C4770      S4772   1.805       .  S
S4771      H4774   1.407       .  S
S4772      H4773   1.407       .  S
C4777      C4778   1.404       .  A
C4777      C4782   1.412       .  A
C4778      C4779   1.401       .  A
C4778      H4787   1.084       .  S
C4779      C4780   1.415       .  A
C4779      S4783   1.801       .  S
C4780      C4781   1.406       .  A
C4781      C4782   1.395       .  A
C4781      H4788   1.084       .  S
C4782      S4784   1.805       .  S
S4783      H4786   1.408       .  S
S4784      H4785   1.407       .  S
C4789      C4790   1.407       .  A
C4789      C4794   1.415       .  A
C4790      C4791   1.400       .  A
C4790      H4799   1.084       .  S
C4791      C4792   1.416       .  A
C4791      S4795   1.800       .  S
C4792      C4793   1.408       .  A
C4793      C4794   1.396       .  A
C4793      H4800   1.083       .  S
C4794      S4796   1.804       .  S
S4795      H4798   1.408       .  S
S4796      H4797   1.407       .  S
C4801      C4802   1.409       .  A
C4801      C4806   1.421       .  A
C4802      C4803   1.395       .  A
C4802      H4811   1.081       .  S
C4803      C4804   1.419       .  A
C4803      S4807   1.807       .  S
C4804      C4805   1.409       .  A
C4805      C4806   1.396       .  A
C4805      H4812   1.082       .  S
C4806      S4808   1.807       .  S
S4807      H4810   1.407       .  S
S4808      H4809   1.408       .  S
C4813      C4814   1.404       .  A
C4813      C4818   1.412       .  A
C4814      C4815   1.406       .  A
C4814      H4823   1.084       .  S
C4815      C4816   1.415       .  A
C4815      S4819   1.801       .  S
C4816      C4817   1.403       .  A
C4817      C4818   1.396       .  A
C4817      H4824   1.084       .  S
C4818      S4820   1.806       .  S
S4819      H4822   1.407       .  S
S4820      H4821   1.403       .  S
C4825      C4826   1.402       .  A
C4825      C4830   1.414       .  A
C4826      C4827   1.396       .  A
C4826      H4835   1.084       .  S
C4827      C4828   1.412       .  A
C4827      S4831   1.806       .  S
C4828      C4829   1.403       .  A
C4829      C4830   1.405       .  A
C4829      H4836   1.084       .  S
C4830      S4832   1.802       .  S
S4831      H4834   1.405       .  S
S4832      H4833   1.407       .  S
C4837      C4838   1.409       .  A
C4837      C4842   1.419       .  A
C4838      C4839   1.396       .  A
C4838      H4847   1.081       .  S
C4839      C4840   1.421       .  A
C4839      S4843   1.807       .  S
C4840      C4841   1.410       .  A
C4841      C4842   1.396       .  A
C4841      H4848   1.081       .  S
C4842      S4844   1.806       .  S
S4843      H4846   1.407       .  S
S4844      H4845   1.407       .  S
C4849      C4850   1.401       .  A
C4849      C4854   1.417       .  A
C4850      C4851   1.397       .  A
C4850      H4859   1.084       .  S
C4851      C4852   1.422       .  A
C4851      S4855   1.802       .  S
C4852      C4853   1.407       .  A
C4853      C4854   1.403       .  A
C4853      H4860   1.083       .  S
C4854      S4856   1.804       .  S
S4855      H4858   1.408       .  S
S4856      H4857   1.407       .  S
C4861      C4862   1.400       .  A
C4861      C4866   1.412       .  A
C4862      C4863   1.397       .  A
C4862      H4871   1.084       .  S
C4863      C4864   1.416       .  A
C4863      S4867   1.805       .  S
C4864      C4865   1.405       .  A
C4865      C4866   1.404       .  A
C4865      H4872   1.084       .  S
C4866      S4868   1.803       .  S
S4867      H4870   1.408       .  S
S4868      H4869   1.406       .  S
C4873      C4874   1.409       .  A
C4873      C4878   1.420       .  A
C4874      C4875   1.397       .  A
C4874      H4883   1.081       .  S
C4875      C4876   1.420       .  A
C4875      S4879   1.806       .  S
C4876      C4877   1.409       .  A
C4877      C4878   1.395       .  A
C4877      H4884   1.081       .  S
C4878      S4880   1.807       .  S
S4879      H4882   1.407       .  S
S4880      H4881   1.407       .  S
C4885      C4886   1.404       .  A
C4885      C4890   1.414       .  A
C4886      C4887   1.396       .  A
C4886      H4895   1.084       .  S
C4887      C4888   1.411       .  A
C4887      S4891   1.805       .  S
C4888      C4889   1.403       .  A
C4889      C4890   1.403       .  A
C4889      H4896   1.084       .  S
C4890      S4892   1.802       .  S
S4891      H4894   1.402       .  S
S4892      H4893   1.407       .  S
C4897      C4898   1.403       .  A
C4897      C4902   1.422       .  A
C4898      C4899   1.399       .  A
C4898      H4907   1.084       .  S
C4899      C4900   1.419       .  A
C4899      S4903   1.805       .  S
C4900      C4901   1.401       .  A
C4901      C4902   1.400       .  A
C4901      H4908   1.084       .  S
C4902      S4904   1.802       .  S
S4903      H4906   1.407       .  S
S4904      H4905   1.408       .  S
C4909      C4910   1.407       .  A
C4909      C4914   1.416       .  A
C4910      C4911   1.407       .  A
C4910      H4919   1.084       .  S
C4911      C4912   1.413       .  A
C4911      S4915   1.803       .  S
C4912      C4913   1.398       .  A
C4913      C4914   1.395       .  A
C4913      H4920   1.085       .  S
C4914      S4916   1.799       .  S
S4915      H4918   1.406       .  S
S4916      H4917   1.408       .  S
C4921      C4922   1.411       .  A
C4921      C4926   1.417       .  A
C4922      C4923   1.400       .  A
C4922      H4931   1.083       .  S
C4923      C4924   1.410       .  A
C4923      S4927   1.804       .  S
C4924      C4925   1.405       .  A
C4925      C4926   1.401       .  A
C4925      H4932   1.084       .  S
C4926      S4928   1.800       .  S
S4927      H4930   1.406       .  S
S4928      H4929   1.408       .  S
C4933      C4934   1.405       .  A
C4933      C4938   1.416       .  A
C4934      C4935   1.400       .  A
C4934      H4943   1.084       .  S
C4935      C4936   1.411       .  A
C4935      S4939   1.805       .  S
C4936      C4937   1.403       .  A
C4937      C4938   1.403       .  A
C4937      H4944   1.084       .  S
C4938      S4940   1.804       .  S
S4939      H4942   1.406       .  S
S4940      H4941   1.398       .  S
C4945      C4946   1.400       .  A
C4945      C4950   1.413       .  A
C4946      C4947   1.398       .  A
C4946      H4955   1.085       .  S
C4947      C4948   1.419       .  A
C4947      S4951   1.804       .  S
C4948      C4949   1.407       .  A
C4949      C4950   1.407       .  A
C4949      H4956   1.084       .  S
C4950      S4952   1.803       .  S
S4951      H4954   1.408       .  S
S4952      H4953   1.406       .  S
C4957      C4958   1.407       .  A
C4957      C4962   1.421       .  A
C4958      C4959   1.404       .  A
C4958      H4967   1.083       .  S
C4959      C4960   1.415       .  A
C4959      S4963   1.804       .  S
C4960      C4961   1.401       .  A
C4961      C4962   1.396       .  A
C4961      H4968   1.084       .  S
C4962      S4964   1.800       .  S
S4963      H4966   1.406       .  S
S4964      H4965   1.402       .  S
C4969      C4970   1.403       .  A
C4969      C4974   1.412       .  A
C4970      C4971   1.398       .  A
C4970      H4979   1.084       .  S
C4971      C4972   1.412       .  A
C4971      S4975   1.805       .  S
C4972      C4973   1.403       .  A
C4973      C4974   1.402       .  A
C4973      H4980   1.084       .  S
C4974      S4976   1.799       .  S
S4975      H4978   1.406       .  S
S4976      H4977   1.403       .  S
C4981      C4982   1.408       .  A
C4981      C4986   1.423       .  A
C4982      C4983   1.405       .  A
C4982      H4991   1.083       .  S
C4983      C4984   1.417       .  A
C4983      S4987   1.804       .  S
C4984      C4985   1.401       .  A
C4985      C4986   1.399       .  A
C4985      H4992   1.084       .  S
C4986      S4988   1.801       .  S
S4987      H4990   1.406       .  S
S4988      H4989   1.405       .  S
C4993      C4994   1.402       .  A
C4993      C4998   1.412       .  A
C4994      C4995   1.403       .  A
C4994      H5003   1.084       .  S
C4995      C4996   1.417       .  A
C4995      S4999   1.803       .  S
C4996      C4997   1.403       .  A
C4997      C4998   1.397       .  A
C4997      H5004   1.084       .  S
C4998      S5000   1.806       .  S
S4999      H5002   1.398       .  S
S5000      H5001   1.404       .  S
C5005      C5006   1.404       .  A
C5005      C5010   1.414       .  A
C5006      C5007   1.406       .  A
C5006      H5015   1.084       .  S
C5007      C5008   1.414       .  A
C5007      S5011   1.802       .  S
C5008      C5009   1.402       .  A
C5009      C5010   1.397       .  A
C5009      H5016   1.084       .  S
C5010      S5012   1.805       .  S
S5011      H5014   1.407       .  S
S5012      H5013   1.405       .  S
C5017      C5018   1.405       .  A
C5017      C5022   1.410       .  A
C5018      C5019   1.401       .  A
C5018      H5027   1.084       .  S
C5019      C5020   1.416       .  A
C5019      S5023   1.800       .  S
C5020      C5021   1.411       .  A
C5021      C5022   1.400       .  A
C5021      H5028   1.083       .  S
C5022      S5024   1.804       .  S
S5023      H5026   1.407       .  S
S5024      H5025   1.406       .  S
C5029      C5030   1.403       .  A
C5029      C5034   1.414       .  A
C5030      C5031   1.397       .  A
C5030      H5039   1.084       .  S
C5031      C5032   1.412       .  A
C5031      S5035   1.805       .  S
C5032      C5033   1.403       .  A
C5033      C5034   1.403       .  A
C5033      H5040   1.084       .  S
C5034      S5036   1.803       .  S
S5035      H5038   1.407       .  S
S5036      H5037   1.406       .  S
C5041      C5042   1.409       .  A
C5041      C5046   1.418       .  A
C5042      C5043   1.393       .  A
C5042      H5051   1.081       .  S
C5043      C5044   1.405       .  A
C5043      S5047   1.803       .  S
C5044      C5045   1.405       .  A
C5045      C5046   1.406       .  A
C5045      H5052   1.084       .  S
C5046      S5048   1.802       .  S
S5047      H5050   1.406       .  S
S5048      H5049   1.406       .  S
C5053      C5054   1.406       .  A
C5053      C5058   1.423   1_554  A
C5054      C5055   1.395       .  A
C5054      H5063   1.081       .  S
C5055      C5056   1.420       .  A
C5055      S5059   1.803       .  S
C5056      C5057   1.406   1_554  A
C5057      C5058   1.397       .  A
C5057      H5064   1.082       .  S
C5058      S5060   1.805       .  S
S5059      H5062   1.407       .  S
S5060      H5061   1.407       .  S
C5065      C5066   1.405   1_545  A
C5065      C5070   1.416       .  A
C5066      C5067   1.395       .  A
C5066      H5075   1.084       .  S
C5067      C5068   1.410   1_565  A
C5067      S5071   1.805       .  S
C5068      C5069   1.400       .  A
C5069      C5070   1.396       .  A
C5069      H5076   1.084       .  S
C5070      S5072   1.805       .  S
S5071      H5074   1.405       .  S
S5072      H5073   1.407       .  S
C5077      C5078   1.410       .  A
C5077      C5082   1.418       .  A
C5078      C5079   1.398       .  A
C5078      H5087   1.081       .  S
C5079      C5080   1.419       .  A
C5079      S5083   1.806       .  S
C5080      C5081   1.409       .  A
C5081      C5082   1.395       .  A
C5081      H5088   1.081       .  S
C5082      S5084   1.803       .  S
S5083      H5086   1.407       .  S
S5084      H5085   1.406       .  S
C5089      C5090   1.406       .  A
C5089      C5094   1.416       .  A
C5090      C5091   1.406       .  A
C5090      H5099   1.084       .  S
C5091      C5092   1.412       .  A
C5091      S5095   1.802       .  S
C5092      C5093   1.400       .  A
C5093      C5094   1.397       .  A
C5093      H5100   1.085       .  S
C5094      S5096   1.805       .  S
S5095      H5098   1.405       .  S
S5096      H5097   1.408       .  S
C5101      C5102   1.405       .  A
C5101      C5106   1.412       .  A
C5102      C5103   1.405       .  A
C5102      H5111   1.084       .  S
C5103      C5104   1.413       .  A
C5103      S5107   1.804       .  S
C5104      C5105   1.402       .  A
C5105      C5106   1.397       .  A
C5105      H5112   1.084       .  S
C5106      S5108   1.805       .  S
S5107      H5110   1.404       .  S
S5108      H5109   1.407       .  S
C5113      C5114   1.410       .  A
C5113      C5118   1.417       .  A
C5114      C5115   1.401       .  A
C5114      H5123   1.083       .  S
C5115      C5116   1.412       .  A
C5115      S5119   1.802       .  S
C5116      C5117   1.408       .  A
C5117      C5118   1.403       .  A
C5117      H5124   1.084       .  S
C5118      S5120   1.800       .  S
S5119      H5122   1.406       .  S
S5120      H5121   1.407       .  S
C5125      C5126   1.407       .  A
C5125      C5130   1.418       .  A
C5126      C5127   1.396       .  A
C5126      H5135   1.084       .  S
C5127      C5128   1.408       .  A
C5127      S5131   1.804       .  S
C5128      C5129   1.401       .  A
C5129      C5130   1.403       .  A
C5129      H5136   1.084       .  S
C5130      S5132   1.802       .  S
S5131      H5134   1.405       .  S
S5132      H5133   1.407       .  S
C5137      C5138   1.402       .  A
C5137      C5142   1.413       .  A
C5138      C5139   1.396       .  A
C5138      H5147   1.084       .  S
C5139      C5140   1.413       .  A
C5139      S5143   1.805       .  S
C5140      C5141   1.403       .  A
C5141      C5142   1.403       .  A
C5141      H5148   1.084       .  S
C5142      S5144   1.803       .  S
S5143      H5146   1.407       .  S
S5144      H5145   1.405       .  S
C5149      C5150   1.409       .  A
C5149      C5154   1.414       .  A
C5150      C5151   1.397       .  A
C5150      H5159   1.084       .  S
C5151      C5152   1.414       .  A
C5151      S5155   1.801       .  S
C5152      C5153   1.411       .  A
C5153      C5154   1.402       .  A
C5153      H5160   1.084       .  S
C5154      S5156   1.803       .  S
S5155      H5158   1.408       .  S
S5156      H5157   1.406       .  S
C5161      C5162   1.408       .  A
C5161      C5166   1.413       .  A
C5162      C5163   1.400       .  A
C5162      H5171   1.084       .  S
C5163      C5164   1.415       .  A
C5163      S5167   1.800       .  S
C5164      C5165   1.411       .  A
C5165      C5166   1.402       .  A
C5165      H5172   1.084       .  S
C5166      S5168   1.803       .  S
S5167      H5170   1.408       .  S
S5168      H5169   1.406       .  S
C5173      C5174   1.404       .  A
C5173      C5178   1.416       .  A
C5174      C5175   1.405       .  A
C5174      H5183   1.084       .  S
C5175      C5176   1.416       .  A
C5175      S5179   1.808       .  S
C5176      C5177   1.400       .  A
C5177      C5178   1.396       .  A
C5177      H5184   1.085       .  S
C5178      S5180   1.806       .  S
S5179      H5182   1.401       .  S
S5180      H5181   1.407       .  S
C5185      C5186   1.412       .  A
C5185      C5190   1.421       .  A
C5186      C5187   1.398       .  A
C5186      H5195   1.083       .  S
C5187      C5188   1.407       .  A
C5187      S5191   1.806       .  S
C5188      C5189   1.401       .  A
C5189      C5190   1.403       .  A
C5189      H5196   1.084       .  S
C5190      S5192   1.803       .  S
S5191      H5194   1.406       .  S
S5192      H5193   1.407       .  S
C5197      C5198   1.399       .  A
C5197      C5202   1.408       .  A
C5198      C5199   1.396       .  A
C5198      H5207   1.084       .  S
C5199      C5200   1.417       .  A
C5199      S5203   1.804       .  S
C5200      C5201   1.406       .  A
C5201      C5202   1.394       .  A
C5201      H5208   1.084       .  S
C5202      S5204   1.805       .  S
S5203      H5206   1.407       .  S
S5204      H5205   1.405       .  S
C5209      C5210   1.399       .  A
C5209      C5214   1.409       .  A
C5210      C5211   1.396       .  A
C5210      H5219   1.084       .  S
C5211      C5212   1.418       .  A
C5211      S5215   1.805       .  S
C5212      C5213   1.406       .  A
C5213      C5214   1.396       .  A
C5213      H5220   1.084       .  S
C5214      S5216   1.805       .  S
S5215      H5218   1.407       .  S
S5216      H5217   1.405       .  S
C5221      C5222   1.399       .  A
C5221      C5226   1.408       .  A
C5222      C5223   1.396       .  A
C5222      H5231   1.084       .  S
C5223      C5224   1.417       .  A
C5223      S5227   1.805       .  S
C5224      C5225   1.407       .  A
C5225      C5226   1.394       .  A
C5225      H5232   1.084       .  S
C5226      S5228   1.805       .  S
S5227      H5230   1.407       .  S
S5228      H5229   1.405       .  S
