geometry optimzed in LAMMPS
_audit_creation_date              2020-11-30 
_audit_creation_method            'lammps2cif' 
_symmetry_space_group_name_H-M    'P1' 
_symmetry_Int_Tables_number       1 
_symmetry_cell_setting            triclinic 
loop_ 
_symmetry_equiv_pos_as_xyz 
  x,y,z 
_cell_length_a                    54.45867463 
_cell_length_b                    54.75534005807536 
_cell_length_c                    53.48664159386028 
_cell_angle_alpha                 89.77256091483241 
_cell_angle_beta                  89.97794307075787 
_cell_angle_gamma                 90.03875846571276 
loop_ 
_atom_site_label 
_atom_site_type_symbol 
_atom_site_fract_x 
_atom_site_fract_y 
_atom_site_fract_z 
_atom_site_charge 
O1          O  0.53130459  0.97293554  0.48377326    -0.79500
O2          O  0.46355404  0.97090263  0.49078962    -0.79500
O3          O  0.51821941  0.99479703  0.55011772    -0.79500
O4          O  0.49227665  0.98997260  0.44418333    -0.79500
O5          O  0.49455008  0.96720693  0.53239684    -0.79600
O6          O  0.53188894  0.99353951  0.43641564    -0.79500
O7          O  0.45007791  0.00020837  0.46679802    -0.79500
O8          O  0.55096723  0.99448557  0.51253562    -0.79500
C9          C  0.54904811  0.97533187  0.49890659     1.10200
C10         C  0.44740073  0.97902945  0.47598280     1.10100
C11         C  0.50927704  0.97340381  0.54960328     1.10200
C12         C  0.51081683  0.98659879  0.42952291     1.10100
O13         O  0.51176634  0.03665997  0.45063166    -0.79500
O14         O  0.47568578  0.01307306  0.54992955    -0.79600
O15         O  0.53670692  0.04536166  0.50049872    -0.79500
O16         O  0.46659372  0.04510172  0.48721275    -0.79500
O17         O  0.44605561  0.01780857  0.50965353    -0.79600
O18         O  0.55202052  0.01955376  0.47410746    -0.79500
O19         O  0.47340198  0.03459683  0.43690854    -0.79500
O20         O  0.50130131  0.04258024  0.53874179    -0.79500
Co21       Co  0.51954535  0.00327226  0.46823582     1.51500
Co22       Co  0.47173932  0.99253714  0.51913506     1.51700
Co23       Co  0.52519589  0.01939428  0.52365533     1.51600
Co24       Co  0.48188338  0.01876440  0.46754178     1.51500
O25         O  0.49925147  0.00820731  0.49900428    -1.41400
C26         C  0.49501275  0.04312328  0.43484704     1.10100
C27         C  0.48509473  0.03407611  0.55355199     1.10200
C28         C  0.55412971  0.03911685  0.48636667     1.10100
C29         C  0.44750924  0.03888889  0.49932687     1.10100
O30         O  0.01348066  0.54305656  0.48284622    -0.79500
O31         O  0.03302226  0.44349336  0.51590006    -0.79500
O32         O  0.04705905  0.49281890  0.54224861    -0.79500
O33         O  0.04105675  0.47997899  0.47138595    -0.79500
O34         O  0.02115313  0.46704568  0.55849707    -0.79600
O35         O  0.01456574  0.50440452  0.45225567    -0.79500
O36         O  0.02690972  0.43148988  0.47688115    -0.79500
O37         O  0.04436955  0.53003935  0.50610646    -0.79500
C38         C  0.03578177  0.54457644  0.48975617     1.10200
C39         C  0.03689177  0.42805842  0.49806241     1.10100
C40         C  0.04077775  0.47921456  0.56028709     1.10200
C41         C  0.03517257  0.49314745  0.45278422     1.10100
O42         O  0.96715508  0.48803086  0.47302251    -0.79500
O43         O  0.97354493  0.47990320  0.54259302    -0.79600
O44         O  0.99800580  0.54417115  0.52698521    -0.79500
O45         O  0.98428365  0.44064743  0.49986350    -0.79500
O46         O  0.99069062  0.43237929  0.53977006    -0.79600
O47         O  0.96788147  0.52797430  0.50505492    -0.79500
O48         O  0.99379251  0.46420328  0.45558245    -0.79500
O49         O  0.99855712  0.50701778  0.55994904    -0.79500
Co50       Co  0.99097810  0.51430647  0.48000750     1.51500
Co51       Co  0.00163909  0.46299912  0.52706910     1.51700
Co52       Co  0.02180584  0.51677098  0.53205824     1.51600
Co53       Co  0.01390164  0.46212417  0.48744028     1.51500
O54         O  0.00713872  0.49324428  0.50658953    -1.41400
C55         C  0.97323794  0.47504071  0.45468152     1.10100
C56         C  0.97878519  0.49436796  0.56034204     1.10200
C57         C  0.97576665  0.54426145  0.51980425     1.10100
C58         C  0.98203887  0.42601906  0.51883723     1.10100
O59         O  0.46819065  0.49717716  0.96115378    -0.79500
O60         O  0.53436872  0.50946951  0.95858827    -0.79500
O61         O  0.49174645  0.54729322  0.97325047    -0.79500
O62         O  0.52809148  0.44658485  0.98973113    -0.79500
O63         O  0.53103005  0.55770464  0.97264729    -0.79600
O64         O  0.50229353  0.45954375  0.96091304    -0.79500
O65         O  0.55746042  0.48628662  0.98317458    -0.79500
O66         O  0.45206508  0.52124537  0.98874987    -0.79500
C67         C  0.45018262  0.50971854  0.96827992     1.10200
C68         C  0.55404768  0.49772308  0.96248088     1.10100
C69         C  0.50902159  0.56237702  0.96689663     1.10200
C70         C  0.51816159  0.44426625  0.96838863     1.10100
O71         O  0.48675183  0.44627567  0.01057354    -0.79500
O72         O  0.51362397  0.54894091  0.01906181    -0.79600
O73         O  0.47421081  0.50906514  0.03589428    -0.79500
O74         O  0.54445730  0.50252691  0.03358911    -0.79500
O75         O  0.55533678  0.52711473  0.00364047    -0.79600
O76         O  0.45389999  0.48266522  0.01248552    -0.79500
O77         O  0.51225312  0.46283881  0.03785662    -0.79500
O78         O  0.47369217  0.55680538  0.01876766    -0.79500
Co79       Co  0.47930436  0.47305488  0.98617817     1.51500
Co80       Co  0.52202290  0.52758124  0.98760926     1.51700
Co81       Co  0.48504011  0.52654624  0.00574571     1.51600
Co82       Co  0.53378268  0.47610143  0.01097747     1.51500
O83         O  0.50529952  0.49672065  0.99804469    -1.41400
C84         C  0.49645833  0.44670165  0.03221279     1.10100
C85         C  0.49535808  0.56306147  0.02471386     1.10200
C86         C  0.45617493  0.49481205  0.03278633     1.10100
C87         C  0.56017856  0.51684605  0.02424141     1.10100
C88         C  0.55750013  0.93439617  0.73476146     0.03800
C89         C  0.57145578  0.91290938  0.73682074    -0.12400
C90         C  0.58302915  0.90663044  0.75934299     0.01300
C91         C  0.58036062  0.92187618  0.78030969    -0.10900
C92         C  0.56619099  0.94337580  0.77871003     0.03800
C93         C  0.55493867  0.94937542  0.75585293    -0.10300
H94         H  0.57436629  0.90138396  0.72071558     0.09300
H95         H  0.58854828  0.91643327  0.79788662     0.06900
H96         H  0.54421642  0.96600527  0.75441626     0.06700
C97         C  0.73490165  0.73948850  0.76208468     0.80900
N98         N  0.71885471  0.75843976  0.76301981    -0.77500
C99         C  0.72071405  0.77738895  0.74668267     0.83300
N100        N  0.73871180  0.77720889  0.72912095    -0.77400
C101        C  0.75501087  0.75846295  0.72802237     0.83400
N102        N  0.75312547  0.73957419  0.74459404    -0.79100
C103        C  0.93085027  0.71835582  0.58646632     0.03800
C104        C  0.94423553  0.73698931  0.57434136    -0.12400
C105        C  0.94084638  0.76169082  0.58092700     0.01300
C106        C  0.92299790  0.76754483  0.59915203    -0.10900
C107        C  0.90893704  0.74913461  0.61069897     0.03800
C108        C  0.91346049  0.72464818  0.60460986    -0.10300
H109        H  0.95803504  0.73225290  0.56060016     0.09300
H110        H  0.91946987  0.78640554  0.60395382     0.06900
H111        H  0.90356212  0.71025835  0.61428306     0.06700
C112        C  0.77055815  0.57457430  0.92465659     0.03800
C113        C  0.74859996  0.56253620  0.93052482    -0.12400
C114        C  0.72688180  0.56696349  0.91704794     0.01300
C115        C  0.72745379  0.58398294  0.89708356    -0.10900
C116        C  0.74947967  0.59639175  0.89091975     0.03800
C117        C  0.77077587  0.59145977  0.90489306    -0.10300
H118        H  0.74856171  0.54920021  0.94557314     0.09300
H119        H  0.71102660  0.58743528  0.88646499     0.06900
H120        H  0.78784032  0.60023218  0.89963657     0.06700
C121        C  0.25769123  0.22282897  0.75227386     0.80900
N122        N  0.23810493  0.22069705  0.73656688    -0.77500
C123        C  0.22003742  0.23783390  0.73642985     0.83300
N124        N  0.22153093  0.25695910  0.75239090    -0.77400
C125        C  0.24100433  0.25954160  0.76803840     0.83400
N126        N  0.25916087  0.24239384  0.76797763    -0.79100
C127        C  0.27913057  0.43048074  0.93050941     0.03800
C128        C  0.25486923  0.43388222  0.93912978    -0.12400
C129        C  0.23544769  0.41925616  0.93017575     0.01300
C130        C  0.24068557  0.40108471  0.91248025    -0.10900
C131        C  0.26470610  0.39719717  0.90364709     0.03800
C132        C  0.28385757  0.41176651  0.91303956    -0.10300
H133        H  0.25121552  0.44834067  0.95234558     0.09300
H134        H  0.22587848  0.38952860  0.90599116     0.06900
H135        H  0.30242964  0.40828123  0.90679872     0.06700
C136        C  0.42093828  0.06332766  0.78429874     0.03800
C137        C  0.43090204  0.05542779  0.76128720    -0.12400
C138        C  0.42727261  0.06893687  0.73907834     0.01300
C139        C  0.41315171  0.09044373  0.74003834    -0.10900
C140        C  0.40227444  0.09816600  0.76241617     0.03800
C141        C  0.40621778  0.08452950  0.78443017    -0.10300
H142        H  0.44126400  0.03862149  0.76033056     0.09300
H143        H  0.40943487  0.10074959  0.72316137     0.06900
H144        H  0.39824245  0.09074666  0.80183684     0.06700
C145        C  0.06077496  0.20952531  0.56840907     0.03800
C146        C  0.08044155  0.20933180  0.58562063    -0.12400
C147        C  0.09564164  0.23000490  0.58838568     0.01300
C148        C  0.09115924  0.25092138  0.57373098    -0.10900
C149        C  0.07134430  0.25170001  0.55681103     0.03800
C150        C  0.05639497  0.23091268  0.55444651    -0.10300
H151        H  0.08469683  0.19306765  0.59624808     0.09300
H152        H  0.10276951  0.26673390  0.57632880     0.06900
H153        H  0.04121686  0.23132723  0.54133231     0.06700
O154        O  0.53971740  0.99315238  0.97564397    -0.79500
O155        O  0.54356112  0.00691662  0.04444003    -0.79500
O156        O  0.51349839  0.05768944  0.98381640    -0.79500
O157        O  0.52880392  0.95859159  0.02042492    -0.79500
O158        O  0.54310577  0.04352554  0.00800889    -0.79600
O159        O  0.52404221  0.94507486  0.98180206    -0.79500
O160        O  0.51621247  0.98312651  0.06141354    -0.79500
O161        O  0.51514987  0.01805560  0.95445673    -0.79500
C162        C  0.53535246  0.00617287  0.95650851     1.10200
C163        C  0.53680836  0.99367514  0.06256159     1.10100
C164        C  0.53552982  0.05855590  0.99165672     1.10200
C165        C  0.53352581  0.94263681  0.00337067     1.10100
O166        O  0.48040912  0.95670672  0.00219351    -0.79500
O167        O  0.49667388  0.05972187  0.02714484    -0.79600
O168        O  0.46616673  0.00365961  0.97282298    -0.79500
O169        O  0.46940863  0.99683495  0.04385306    -0.79500
O170        O  0.49501002  0.02367795  0.06087556    -0.79600
O171        O  0.49290491  0.97843960  0.95762427    -0.79500
O172        O  0.48516627  0.94879018  0.04245431    -0.79500
O173        O  0.46660927  0.04422378  0.00456854    -0.79500
Co174      Co  0.51125989  0.97656204  0.99060318     1.51500
Co175      Co  0.51942607  0.03171187  0.03348267     1.51700
Co176      Co  0.49037772  0.02940679  0.98060610     1.51600
Co177      Co  0.49743259  0.97889854  0.02960858     1.51500
O178        O  0.50449908  0.00835745  0.00838220    -1.41400
C179        C  0.47685951  0.94254913  0.02131164     1.10100
C180        C  0.47434970  0.05984323  0.02022233     1.10200
C181        C  0.47282753  0.98997005  0.95521049     1.10100
C182        C  0.47463054  0.01206190  0.06096484     1.10100
C183        C  0.27548584  0.75194893  0.75943515     0.80900
N184        N  0.27341113  0.76641833  0.73888647    -0.77500
C185        C  0.25525394  0.76247126  0.72196385     0.83300
N186        N  0.23896504  0.74407974  0.72584864    -0.77400
C187        C  0.24096863  0.72938096  0.74626896     0.83400
N188        N  0.25936372  0.73324900  0.76292533    -0.79100
C189        C  0.43229110  0.73435970  0.93570288     0.03800
C190        C  0.43517050  0.75732081  0.94696682    -0.12400
C191        C  0.42232708  0.77781961  0.93769814     0.01300
C192        C  0.40623398  0.77478168  0.91737657    -0.10900
C193        C  0.40260021  0.75174969  0.90642369     0.03800
C194        C  0.41585774  0.73178245  0.91566997    -0.10300
H195        H  0.44791283  0.75904560  0.96234679     0.09300
H196        H  0.39684255  0.79066166  0.91013182     0.06900
H197        H  0.41286401  0.71391953  0.90756365     0.06700
C198        C  0.23994481  0.91807298  0.55599332     0.03800
C199        C  0.24512859  0.90080489  0.57465108    -0.12400
C200        C  0.26928334  0.89315256  0.57923970     0.01300
C201        C  0.28835928  0.90275295  0.56469061    -0.10900
C202        C  0.28351659  0.91926293  0.54503230     0.03800
C203        C  0.25925469  0.92742483  0.54123517    -0.10300
H204        H  0.23025034  0.89389896  0.58612777     0.09300
H205        H  0.30702999  0.89723616  0.56878470     0.06900
H206        H  0.25534209  0.94026234  0.52629707     0.06700
C207        C  0.06796078  0.57426840  0.77023139     0.03800
C208        C  0.06587921  0.56237421  0.74691949    -0.12400
C209        C  0.07899300  0.57089321  0.72586611     0.01300
C210        C  0.09456346  0.59109779  0.72849432    -0.10900
C211        C  0.09761151  0.60264752  0.75163218     0.03800
C212        C  0.08405690  0.59438946  0.77232038    -0.10300
H213        H  0.05345706  0.54704312  0.74510657     0.09300
H214        H  0.10426906  0.59800208  0.71224121     0.06900
H215        H  0.08680053  0.60332311  0.79009587     0.06700
C216        C  0.77571089  0.26593871  0.23127751     0.80900
N217        N  0.79228411  0.26553034  0.25010220    -0.77500
C218        C  0.79266282  0.24696198  0.26689206     0.83300
N219        N  0.77609381  0.22845024  0.26488127    -0.77400
C220        C  0.75924858  0.22871748  0.24601475     0.83400
N221        N  0.75921852  0.24743803  0.22920345    -0.79100
C222        C  0.94031224  0.25460704  0.44096985     0.03800
C223        C  0.95573818  0.23541924  0.44907531    -0.12400
C224        C  0.95313788  0.21171577  0.43910641     0.01300
C225        C  0.93439140  0.20727258  0.42152310    -0.10900
C226        C  0.91928624  0.22621157  0.41296570     0.03800
C227        C  0.92226928  0.24968588  0.42295139    -0.10300
H228        H  0.97018833  0.23888984  0.46247805     0.09300
H229        H  0.93141508  0.18905113  0.41434259     0.06900
H230        H  0.91019924  0.26429257  0.41695660     0.06700
C231        C  0.76682111  0.42407231  0.06279084     0.03800
C232        C  0.76558442  0.40461773  0.07997367    -0.12400
C233        C  0.74338082  0.39800253  0.09141077     0.01300
C234        C  0.72207722  0.41075216  0.08513606    -0.10900
C235        C  0.72258254  0.43059091  0.06844873     0.03800
C236        C  0.74513386  0.43732330  0.05714973    -0.10300
H237        H  0.78205587  0.39426240  0.08400494     0.09300
H238        H  0.70489158  0.40548418  0.09390361     0.06900
H239        H  0.74575469  0.45255790  0.04426313     0.06700
C240        C  0.58494934  0.07463615  0.27019448     0.03800
C241        C  0.58291033  0.06477668  0.24606073    -0.12400
C242        C  0.59993496  0.07090856  0.22727848     0.01300
C243        C  0.61911616  0.08702633  0.23294520    -0.10900
C244        C  0.62215975  0.09642701  0.25721737     0.03800
C245        C  0.60485638  0.09020077  0.27569904    -0.10300
H246        H  0.56744447  0.05308335  0.24183079     0.09300
H247        H  0.63129400  0.09248071  0.21798330     0.06900
H248        H  0.60717547  0.09731931  0.29440183     0.06700
O249        O  0.94760529  0.50940139  0.97492705    -0.79500
O250        O  0.04793709  0.51704061  0.01127934    -0.79500
O251        O  0.99845097  0.52965860  0.03980929    -0.79500
O252        O  0.01085320  0.53428981  0.96754017    -0.79500
O253        O  0.02288255  0.50034646  0.05134147    -0.79600
O254        O  0.98664364  0.51135763  0.94431177    -0.79500
O255        O  0.05871616  0.51866269  0.97125759    -0.79500
O256        O  0.96147342  0.53491776  0.00361347    -0.79500
C257        C  0.94665644  0.52989662  0.98602813     1.10200
C258        C  0.06328207  0.52353061  0.99393509     1.10100
C259        C  0.01191204  0.52002433  0.05634966     1.10200
C260        C  0.99900960  0.53095126  0.94744329     1.10100
O261        O  0.99935270  0.46137785  0.95788850    -0.79500
O262        O  0.00733940  0.45686205  0.02793906    -0.79600
O263        O  0.94392814  0.48754221  0.01633950    -0.79500
O264        O  0.04923349  0.47344546  0.98789540    -0.79500
O265        O  0.05597187  0.47151680  0.02853437    -0.79600
O266        O  0.95849550  0.46024922  0.99011205    -0.79500
O267        O  0.02619306  0.48884850  0.94658299    -0.79500
O268        O  0.98149303  0.48002127  0.04940382    -0.79500
Co269      Co  0.97463350  0.48550254  0.96875820     1.51500
Co270      Co  0.02616789  0.48577379  0.01721477     1.51700
Co271      Co  0.97315931  0.50783792  0.02548323     1.51600
Co272      Co  0.02795528  0.50497625  0.98022348     1.51500
O273        O  0.99638018  0.49608536  0.99784073    -1.41400
C274        C  0.01450648  0.46938859  0.94191331     1.10100
C275        C  0.99383254  0.46023461  0.04695644     1.10200
C276        C  0.94155204  0.46765434  0.00448137     1.10100
C277        C  0.06293986  0.46680440  0.00654748     1.10100
C278        C  0.22720583  0.07021197  0.42781387     0.03800
C279        C  0.24745579  0.06374981  0.44283002    -0.12400
C280        C  0.27018720  0.07578547  0.44007777     0.01300
C281        C  0.27245580  0.09447997  0.42196386    -0.10900
C282        C  0.25239539  0.10090178  0.40678667     0.03800
C283        C  0.23006361  0.08861418  0.40975322    -0.10300
H284        H  0.24560226  0.04973986  0.45703001     0.09300
H285        H  0.28994710  0.10333045  0.41876730     0.06900
H286        H  0.21463202  0.09367437  0.39801165     0.06700
C287        C  0.25595890  0.25705992  0.29543910     0.80900
N288        N  0.23848372  0.27466144  0.29273865    -0.77500
C289        C  0.24038143  0.29151600  0.27400072     0.83300
N290        N  0.25982433  0.29071045  0.25813293    -0.77400
C291        C  0.27727265  0.27319241  0.26069374     0.83400
N292        N  0.27534280  0.25655883  0.27942785    -0.79100
C293        C  0.06496130  0.43763498  0.27090747     0.03800
C294        C  0.05249027  0.44206929  0.24836969    -0.12400
C295        C  0.05697442  0.42790611  0.22695383     0.01300
C296        C  0.07451178  0.40901263  0.22830705    -0.10900
C297        C  0.08739055  0.40445100  0.25060699     0.03800
C298        C  0.08224322  0.41856959  0.27188541    -0.10300
H299        H  0.03904290  0.45664546  0.24753542     0.09300
H300        H  0.07882025  0.39820270  0.21201023     0.06900
H301        H  0.09109069  0.41397140  0.28936782     0.06700
C302        C  0.43890430  0.27452557  0.09638939     0.03800
C303        C  0.41784221  0.27693158  0.11140965    -0.12400
C304        C  0.40436800  0.25626137  0.11892531     0.01300
C305        C  0.41163305  0.23304888  0.11070404    -0.10900
C306        C  0.43279750  0.23025328  0.09595184     0.03800
C307        C  0.44642666  0.25103613  0.08915105    -0.10300
H308        H  0.41113915  0.29485229  0.11637693     0.09300
H309        H  0.40123337  0.21712087  0.11648271     0.06900
H310        H  0.46262376  0.24895114  0.07755896     0.06700
C311        C  0.75594114  0.28858757  0.71186609     0.80900
N312        N  0.73974859  0.28404162  0.73072072    -0.77500
C313        C  0.72541283  0.26368310  0.73007931     0.83300
N314        N  0.72744991  0.24796770  0.71067569    -0.77400
C315        C  0.74366426  0.25229662  0.69192397     0.83400
N316        N  0.75786178  0.27261466  0.69262093    -0.79100
C317        C  0.92033668  0.44104579  0.73224623     0.03800
C318        C  0.89812200  0.42811243  0.73241191    -0.12400
C319        C  0.88888134  0.41764252  0.75448344     0.01300
C320        C  0.90213037  0.42068780  0.77668517    -0.10900
C321        C  0.92462730  0.43330014  0.77710085     0.03800
C322        C  0.93370678  0.44362496  0.75468038    -0.10300
H323        H  0.88789263  0.42691092  0.71514923     0.09300
H324        H  0.89504604  0.41269486  0.79381687     0.06900
H325        H  0.95094620  0.45339784  0.75455138     0.06700
C326        C  0.59124269  0.22605357  0.91506098     0.03800
C327        C  0.60891974  0.23057279  0.89654422    -0.12400
C328        C  0.61528281  0.25457891  0.88984433     0.01300
C329        C  0.60343957  0.27414947  0.90154724    -0.10900
C330        C  0.58488775  0.27005802  0.91939993     0.03800
C331        C  0.57933475  0.24590859  0.92654840    -0.10300
H332        H  0.61815832  0.21528166  0.88785126     0.09300
H333        H  0.60878321  0.29260404  0.89662009     0.06900
H334        H  0.56513936  0.24260613  0.94034946     0.06700
C335        C  0.77309394  0.06976366  0.55951859     0.03800
C336        C  0.76696125  0.08759691  0.57711552    -0.12400
C337        C  0.74291048  0.09630725  0.57924335     0.01300
C338        C  0.72461722  0.08666626  0.56384274    -0.10900
C339        C  0.73034133  0.06927393  0.54538739     0.03800
C340        C  0.75463408  0.06045814  0.54365476    -0.10300
H341        H  0.78110419  0.09465242  0.58938186     0.09300
H342        H  0.70593855  0.09305481  0.56613800     0.06900
H343        H  0.75921973  0.04720269  0.52943211     0.06700
C344        C  0.76482728  0.75606936  0.27713470     0.80900
N345        N  0.74520984  0.75524381  0.26147578    -0.77500
C346        C  0.74455411  0.73904785  0.24226380     0.83300
N347        N  0.76351111  0.72302133  0.23912689    -0.77400
C348        C  0.78312097  0.72364422  0.25499247     0.83400
N349        N  0.78373292  0.74037179  0.27362766    -0.79100
C350        C  0.72198172  0.92168126  0.44228034     0.03800
C351        C  0.74571550  0.93020890  0.44775085    -0.12400
C352        C  0.76616280  0.92211466  0.43414034     0.01300
C353        C  0.76277868  0.90498130  0.41499305    -0.14700
C354        C  0.73926141  0.89588362  0.40939203     0.03800
C355        C  0.71888664  0.90470004  0.42276362    -0.10300
H356        H  0.74831316  0.94319852  0.46277311     0.09300
H357        H  0.77853165  0.89852591  0.40463404     0.06900
H358        H  0.70071880  0.89831462  0.41781864     0.06700
C359        C  0.93526742  0.55641006  0.23164167     0.03800
C360        C  0.91603121  0.57291586  0.23568961    -0.12400
C361        C  0.90630848  0.57682339  0.25961718     0.01300
C362        C  0.91545369  0.56306709  0.27980881    -0.10900
C363        C  0.93462589  0.54596336  0.27634184     0.03800
C364        C  0.94473233  0.54314106  0.25216189    -0.10300
H365        H  0.90834301  0.58264111  0.21984618     0.09300
H366        H  0.90795246  0.56630335  0.29822983     0.06900
H367        H  0.95932555  0.53003231  0.24933900     0.06700
C368        C  0.58843274  0.76949014  0.06584799     0.03800
C369        C  0.57722012  0.74651307  0.06238192    -0.12400
C370        C  0.58565272  0.72562444  0.07521668     0.01300
C371        C  0.60538965  0.72802016  0.09186220    -0.10900
C372        C  0.61678382  0.75066615  0.09595064     0.03800
C373        C  0.60843199  0.77129735  0.08264180    -0.10300
H374        H  0.56226733  0.74501546  0.04918022     0.09300
H375        H  0.61232321  0.71189366  0.10129690     0.06900
H376        H  0.61720422  0.78867636  0.08607106     0.06700
C377        C  0.24545111  0.73442762  0.26814976     0.80900
N378        N  0.24796601  0.71557155  0.25177743    -0.77500
C379        C  0.26658289  0.71587613  0.23471098     0.83300
N380        N  0.28233052  0.73507003  0.23402455    -0.77400
C381        C  0.27978510  0.75391375  0.25016769     0.83400
N382        N  0.26142750  0.75343656  0.26725629    -0.79100
C383        C  0.42926859  0.92231205  0.26558445     0.03800
C384        C  0.41817560  0.89920272  0.26467439    -0.12400
C385        C  0.40943309  0.88980472  0.24212684     0.01300
C386        C  0.41223621  0.90349660  0.22015405    -0.10900
C387        C  0.42300808  0.92676589  0.22050576     0.03800
C388        C  0.43167144  0.93617605  0.24341022    -0.10300
H389        H  0.41590712  0.88864650  0.28171854     0.09300
H390        H  0.40582773  0.89601047  0.20259357     0.06900
H391        H  0.43998053  0.95409176  0.24417388     0.06700
C392        C  0.06417380  0.76229514  0.41312033     0.03800
C393        C  0.05927317  0.73971009  0.42468349    -0.12400
C394        C  0.07185626  0.71844012  0.41784052     0.01300
C395        C  0.08972330  0.71977421  0.39898523    -0.10900
C396        C  0.09512949  0.74210854  0.38707657     0.03800
C397        C  0.08212696  0.76327308  0.39405062    -0.10300
H398        H  0.04529613  0.73858131  0.43909004     0.09300
H399        H  0.09850809  0.70321228  0.39263361     0.06900
H400        H  0.08643279  0.78030609  0.38475356     0.06700
C401        C  0.27950378  0.54471704  0.08085920     0.03800
C402        C  0.27926121  0.56436842  0.09792292    -0.12400
C403        C  0.25712599  0.57658431  0.10355487     0.01300
C404        C  0.23553128  0.56957141  0.09124767    -0.10900
C405        C  0.23547193  0.55028865  0.07410234     0.03800
C406        C  0.25738480  0.53777710  0.06932029    -0.10300
H407        H  0.29615658  0.57048158  0.10630021     0.09300
H408        H  0.21843720  0.57867120  0.09575796     0.06900
H409        H  0.25723883  0.52267240  0.05627175     0.06700
O410        O  0.00162157  0.94875334  0.53721497    -0.79500
O411        O  0.01178362  0.01643268  0.53473366    -0.79500
O412        O  0.05107519  0.97466111  0.52319803    -0.79500
O413        O  0.94902071  0.00568631  0.50621553    -0.79500
O414        O  0.06000909  0.01392157  0.51931613    -0.79600
O415        O  0.96227831  0.98102350  0.53612779    -0.79500
O416        O  0.98741770  0.03660177  0.50874713    -0.79500
O417        O  0.02634000  0.93259339  0.51027278    -0.79500
C418        C  0.01484441  0.93104075  0.53083857     1.10200
C419        C  0.99879411  0.03498732  0.52968556     1.10100
C420        C  0.06588673  0.99286302  0.52700793     1.10200
C421        C  0.94720460  0.99691563  0.52817024     1.10100
O422        O  0.94901614  0.96272424  0.48826019    -0.79500
O423        O  0.05074085  0.99270160  0.47498873    -0.79600
O424        O  0.01290572  0.95206569  0.46233999    -0.79500
O425        O  0.00347573  0.01919179  0.45907103    -0.79500
O426        O  0.02743143  0.03450355  0.48727662    -0.79600
O427        O  0.98737813  0.93149512  0.48674028    -0.79500
O428        O  0.96387460  0.98688899  0.45878589    -0.79500
O429        O  0.06080001  0.95369919  0.47907434    -0.79500
Co430      Co  0.97671637  0.95757117  0.51200611     1.51500
Co431      Co  0.02975773  0.00270059  0.50625565     1.51700
Co432      Co  0.03014816  0.96481035  0.49164526     1.51600
Co433      Co  0.97758008  0.01041901  0.48338918     1.51500
O434        O  0.99926761  0.98393712  0.49834112    -1.41400
C435        C  0.94808052  0.97143168  0.46623649     1.10100
C436        C  0.06593056  0.97491463  0.47107606     1.10200
C437        C  0.99956979  0.93356388  0.46630687     1.10100
C438        C  0.01705859  0.03641367  0.46619094     1.10100
C439        C  0.01149437  0.86863072  0.44264362     0.19300
C440        C  0.00360059  0.84482116  0.44819360    -0.18800
C441        C  0.01548190  0.82452392  0.43788125    -0.11000
C442        C  0.03600724  0.82752584  0.42206816     0.21600
C443        C  0.04351382  0.85136715  0.41602441    -0.20400
C444        C  0.03157225  0.87166634  0.42626159    -0.11200
C445        C  0.05006492  0.80641716  0.41160010    -0.15400
C446        C  0.05010972  0.78399746  0.42221625    -0.29200
C447        C  0.00026077  0.88955305  0.45635036    -0.03500
C448        C  0.00217050  0.91294940  0.44875153    -0.40000
H449        H  0.98828798  0.84189011  0.46078806     0.12700
H450        H  0.00840012  0.80659727  0.44239553     0.12400
H451        H  0.05917477  0.85431302  0.40388450     0.11800
H452        H  0.03885300  0.88958536  0.42202943     0.12000
H453        H  0.06127876  0.80993888  0.39524079     0.14800
H454        H  0.03937942  0.78115528  0.43905593     0.13500
H455        H  0.99198854  0.88567857  0.47442531     0.11200
H456        H  0.01000326  0.91711110  0.43057633     0.13200
C457        C  0.26063395  0.65643549  0.19653690     0.19300
C458        C  0.24068673  0.64294784  0.18742928    -0.18800
C459        C  0.24414759  0.62522349  0.16900072    -0.11000
C460        C  0.26775914  0.62048962  0.15940825     0.21600
C461        C  0.28785147  0.63317964  0.16934341    -0.20400
C462        C  0.28437410  0.65101471  0.18765682    -0.11200
C463        C  0.27203683  0.60174977  0.13983489    -0.15400
C464        C  0.25512075  0.59656957  0.12227548    -0.29200
C465        C  0.25613821  0.67594346  0.21527015    -0.03500
C466        C  0.27059267  0.69576942  0.21688461    -0.40000
H467        H  0.22231009  0.64639723  0.19431928     0.12700
H468        H  0.22833700  0.61504789  0.16258301     0.12400
H469        H  0.30626858  0.62946094  0.16271731     0.11800
H470        H  0.30035361  0.66031189  0.19496310     0.12000
H471        H  0.28949950  0.59227471  0.14010384     0.14800
H472        H  0.23817042  0.60701264  0.12213669     0.13500
H473        H  0.23990078  0.67459898  0.22700870     0.11200
H474        H  0.28598864  0.69785132  0.20416270     0.13200
C475        C  0.15119275  0.72811984  0.34475740     0.19300
C476        C  0.17557668  0.72156591  0.34994004    -0.18800
C477        C  0.19294371  0.72020139  0.33075725    -0.11000
C478        C  0.18612440  0.72478210  0.30585338     0.21600
C479        C  0.16160053  0.73063055  0.30047385    -0.20400
C480        C  0.14429620  0.73258407  0.31979216    -0.11200
C481        C  0.20453342  0.72354371  0.28545118    -0.15400
C482        C  0.22657958  0.73425396  0.28791814    -0.29200
C483        C  0.13318388  0.72844391  0.36561646    -0.03500
C484        C  0.11339725  0.74322516  0.36635727    -0.40000
H485        H  0.18123920  0.71763287  0.36894695     0.12700
H486        H  0.21166386  0.71522654  0.33533012     0.12400
H487        H  0.15594035  0.73403368  0.28136639     0.11800
H488        H  0.12547431  0.73699439  0.31511425     0.12000
H489        H  0.19940330  0.71524461  0.26778930     0.14800
H490        H  0.23050659  0.74462103  0.30474014     0.13500
H491        H  0.13698687  0.71659501  0.38148624     0.11200
H492        H  0.11083901  0.75689481  0.35182121     0.13200
C493        C  0.36183519  0.83969785  0.22955166     0.19300
C494        C  0.33620904  0.84159777  0.22865151    -0.18800
C495        C  0.32157439  0.82078904  0.23072447    -0.11000
C496        C  0.33238004  0.79761554  0.23323093     0.21600
C497        C  0.35806055  0.79557330  0.23303532    -0.20400
C498        C  0.37274464  0.81651660  0.23154535    -0.11200
C499        C  0.31703651  0.77543044  0.23549006    -0.15400
C500        C  0.29605733  0.77534759  0.24874327    -0.29200
C501        C  0.37659369  0.86225599  0.22795600    -0.03500
C502        C  0.39673142  0.86591259  0.24195316    -0.40000
H503        H  0.32749422  0.85929143  0.22677605     0.12700
H504        H  0.30180785  0.82281055  0.23005235     0.12400
H505        H  0.36671685  0.77782139  0.23452074     0.11800
H506        H  0.39253478  0.81459728  0.23166668     0.12000
H507        H  0.32350187  0.75873268  0.22677353     0.14800
H508        H  0.29063437  0.79153387  0.25904543     0.13500
H509        H  0.36924254  0.87722935  0.21686427     0.11200
H510        H  0.40252749  0.85200129  0.25523727     0.13200
C511        C  0.88468122  0.94481225  0.44927808     0.19300
C512        C  0.86832059  0.93140084  0.46431753    -0.18800
C513        C  0.84411326  0.92756894  0.45688191    -0.11000
C514        C  0.83559014  0.93695350  0.43403551     0.21600
C515        C  0.85201048  0.94982350  0.41855038    -0.20400
C516        C  0.87633006  0.95396645  0.42617277    -0.11200
C517        C  0.81010305  0.93207630  0.42555021    -0.15400
C518        C  0.79112200  0.93018292  0.44165410    -0.29200
C519        C  0.90980370  0.94896265  0.45927431    -0.03500
C520        C  0.92649685  0.96518788  0.45057823    -0.40000
H521        H  0.87422585  0.92395886  0.48212769     0.12700
H522        H  0.83222928  0.91682808  0.46886948     0.12400
H523        H  0.84592978  0.95685860  0.40064071     0.11800
H524        H  0.88840086  0.96412201  0.41390340     0.12000
H525        H  0.80693797  0.93009775  0.40561533     0.14800
H526        H  0.79392435  0.93468706  0.46121172     0.13500
H527        H  0.91404157  0.93913993  0.47644156     0.11200
H528        H  0.92330369  0.97550085  0.43354835     0.13200
C529        C  0.66152438  0.73863415  0.15134166     0.19300
C530        C  0.65799023  0.73280756  0.17668643    -0.18800
C531        C  0.67796836  0.73098099  0.19306680    -0.11000
C532        C  0.70209807  0.73450724  0.18435610     0.21600
C533        C  0.70570688  0.73979273  0.15887826    -0.20400
C534        C  0.68564142  0.74208941  0.14255710    -0.11200
C535        C  0.72372871  0.73226169  0.20134749    -0.15400
C536        C  0.72292268  0.73923902  0.22545840    -0.29200
C537        C  0.63987327  0.73884542  0.13431193    -0.03500
C538        C  0.63815819  0.75256578  0.11332721    -0.40000
H539        H  0.63965289  0.72958055  0.18384282     0.12700
H540        H  0.67451785  0.72623658  0.21241528     0.12400
H541        H  0.72411218  0.74229840  0.15161742     0.11800
H542        H  0.68907919  0.74586436  0.12298933     0.12000
H543        H  0.74111517  0.72638169  0.19342359     0.14800
H544        H  0.70620184  0.74733630  0.23274939     0.13500
H545        H  0.62433769  0.72754252  0.13973675     0.11200
H546        H  0.65243294  0.76578034  0.10900180     0.13200
C547        C  0.86274234  0.63238135  0.25047126     0.19300
C548        C  0.86648751  0.65667845  0.24287423    -0.18800
C549        C  0.84692414  0.67320596  0.24184660    -0.11000
C550        C  0.82296922  0.66572490  0.24810021     0.21600
C551        C  0.81910623  0.64130111  0.25528675    -0.20400
C552        C  0.83879459  0.62481157  0.25666722    -0.11200
C553        C  0.80177437  0.68296584  0.24705846    -0.15400
C554        C  0.80419616  0.70682550  0.25248255    -0.29200
C555        C  0.88382019  0.61510192  0.24943150    -0.03500
C556        C  0.88580017  0.59452589  0.26330897    -0.40000
H557        H  0.88465191  0.66287714  0.23753985     0.12700
H558        H  0.85053023  0.69168782  0.23559582     0.12400
H559        H  0.80081135  0.63500040  0.25997047     0.11800
H560        H  0.83510234  0.60604506  0.26186791     0.12000
H561        H  0.78351931  0.67555699  0.24392501     0.14800
H562        H  0.82196434  0.71376156  0.25832688     0.13500
H563        H  0.89868929  0.61988453  0.23677478     0.11200
H564        H  0.87240580  0.59070181  0.27784760     0.13200
C565        C  0.75039748  0.84227847  0.36338761     0.19300
C566        C  0.76493498  0.82114423  0.36447530    -0.18800
C567        C  0.76433894  0.80397323  0.34520177    -0.11000
C568        C  0.74940662  0.80775313  0.32404377     0.21600
C569        C  0.73467542  0.82879411  0.32307721    -0.20400
C570        C  0.73521056  0.84595037  0.34243533    -0.11200
C571        C  0.74832040  0.79006795  0.30291708    -0.15400
C572        C  0.76604403  0.77356513  0.29812734    -0.29200
C573        C  0.75271847  0.86053361  0.38378762    -0.03500
C574        C  0.73561901  0.87751861  0.38926927    -0.40000
H575        H  0.77679008  0.81784292  0.38039878     0.12700
H576        H  0.77540787  0.78771128  0.34722073     0.12400
H577        H  0.72296116  0.83217041  0.30706826     0.11800
H578        H  0.72417561  0.86226945  0.34058343     0.12000
H579        H  0.73263479  0.79119208  0.29041255     0.14800
H580        H  0.78241116  0.77287938  0.30963847     0.13500
H581        H  0.76907034  0.85933305  0.39534531     0.11200
H582        H  0.71810083  0.87740549  0.37961072     0.13200
C583        C  0.88613197  0.02783550  0.54336404     0.19300
C584        C  0.87711515  0.05170694  0.54110773    -0.18800
C585        C  0.85203875  0.05645471  0.54314055    -0.11000
C586        C  0.83523962  0.03735087  0.54751530     0.21600
C587        C  0.84423904  0.01342525  0.54994627    -0.20400
C588        C  0.86948741  0.00867711  0.54804197    -0.11200
C589        C  0.80831641  0.04203944  0.54877632    -0.15400
C590        C  0.79948051  0.06333374  0.55737417    -0.29200
C591        C  0.91207903  0.02334696  0.53639149    -0.03500
C592        C  0.92522866  0.00348162  0.54291299    -0.40000
H593        H  0.88947158  0.06668682  0.53687900     0.12700
H594        H  0.84583941  0.07502520  0.54028028     0.12400
H595        H  0.83168119  0.99836528  0.55303745     0.11800
H596        H  0.87573977  0.98994299  0.54902156     0.12000
H597        H  0.79574078  0.02748770  0.54368694     0.14800
H598        H  0.81237419  0.07665713  0.56468438     0.13500
H599        H  0.92018960  0.03641897  0.52342354     0.11200
H600        H  0.91853200  0.99082492  0.55702420     0.13200
C601        C  0.74669749  0.15461573  0.61908679     0.19300
C602        C  0.75792910  0.17729026  0.61486189    -0.18800
C603        C  0.75363144  0.19686222  0.63091704    -0.11000
C604        C  0.73833276  0.19394106  0.65195765     0.21600
C605        C  0.72702968  0.17120375  0.65606674    -0.20400
C606        C  0.73117431  0.15169609  0.63985781    -0.11200
C607        C  0.73393304  0.21371375  0.67038312    -0.15400
C608        C  0.74708835  0.23450989  0.67159564    -0.29200
C609        C  0.75238983  0.13422946  0.60199957    -0.03500
C610        C  0.73670223  0.11584219  0.59722173    -0.40000
H611        H  0.76997122  0.17991895  0.59894335     0.12700
H612        H  0.76234582  0.21407304  0.62655551     0.12400
H613        H  0.71523767  0.16838300  0.67214170     0.11800
H614        H  0.72270226  0.13425548  0.64398160     0.12000
H615        H  0.71991185  0.21037038  0.68445509     0.14800
H616        H  0.76158949  0.23834592  0.65829611     0.13500
H617        H  0.76964060  0.13521776  0.59182542     0.11200
H618        H  0.71834858  0.11604403  0.60516078     0.13200
C619        C  0.65608535  0.25189624  0.83099232     0.19300
C620        C  0.65052811  0.24567652  0.80625886    -0.18800
C621        C  0.66661316  0.25173131  0.78687517    -0.11000
C622        C  0.68898701  0.26363770  0.79194572     0.21600
C623        C  0.69459980  0.26975004  0.81675493    -0.20400
C624        C  0.67835531  0.26387958  0.83614906    -0.11200
C625        C  0.70657214  0.27023476  0.77176431    -0.15400
C626        C  0.70780829  0.25785917  0.75015138    -0.29200
C627        C  0.63829492  0.24553330  0.85093224    -0.03500
C628        C  0.63450237  0.25984503  0.87093045    -0.40000
H629        H  0.63341365  0.23655616  0.80185792     0.12700
H630        H  0.66117736  0.24742075  0.76795628     0.12400
H631        H  0.71169527  0.27889827  0.82115665     0.11800
H632        H  0.68336495  0.26845647  0.85514613     0.12000
H633        H  0.71950761  0.28496032  0.77522382     0.14800
H634        H  0.69614352  0.24206408  0.74720063     0.13500
H635        H  0.62654079  0.22977909  0.84793051     0.11200
H636        H  0.64444190  0.27698296  0.87247738     0.13200
C637        C  0.83211634  0.37858382  0.73498178     0.19300
C638        C  0.82175755  0.37231911  0.71184100    -0.18800
C639        C  0.80209274  0.35603557  0.71048055    -0.11000
C640        C  0.79244339  0.34536371  0.73232577     0.21600
C641        C  0.80172640  0.35268947  0.75557221    -0.20400
C642        C  0.82147179  0.36901089  0.75696809    -0.11200
C643        C  0.77363171  0.32573472  0.73138441    -0.15400
C644        C  0.77232629  0.31001468  0.71216667    -0.29200
C645        C  0.85473404  0.39388307  0.73481015    -0.03500
C646        C  0.86543115  0.40356565  0.75525291    -0.40000
H647        H  0.82925728  0.37966588  0.69461324     0.12700
H648        H  0.79474340  0.35162625  0.69225847     0.12400
H649        H  0.79439442  0.34492722  0.77268076     0.11800
H650        H  0.82869246  0.37318303  0.77524965     0.12000
H651        H  0.76216871  0.32279794  0.74775817     0.14800
H652        H  0.78480318  0.31191072  0.69645323     0.13500
H653        H  0.86328313  0.39643235  0.71670347     0.11200
H654        H  0.85731916  0.40063716  0.77350744     0.13200
C655        C  0.35929759  0.27687361  0.17022284     0.19300
C656        C  0.36309874  0.28239231  0.19550587    -0.18800
C657        C  0.34325025  0.28377000  0.21200305    -0.11000
C658        C  0.31916365  0.28024074  0.20332144     0.21600
C659        C  0.31525976  0.27568637  0.17783905    -0.20400
C660        C  0.33517946  0.27370818  0.16143618    -0.11200
C661        C  0.29788502  0.28175936  0.22047681    -0.15400
C662        C  0.29853281  0.27222965  0.24366496    -0.29200
C663        C  0.38077680  0.27515460  0.15335043    -0.03500
C664        C  0.38220707  0.25864806  0.13483715    -0.40000
H665        H  0.38151299  0.28525540  0.20257224     0.12700
H666        H  0.34670288  0.28792808  0.23146400     0.12400
H667        H  0.29680122  0.27325726  0.17072401     0.11800
H668        H  0.33170807  0.27006796  0.14187031     0.12000
H669        H  0.28090022  0.28955142  0.21337907     0.14800
H670        H  0.31474755  0.26241962  0.24994441     0.13500
H671        H  0.39659711  0.28654623  0.15749203     0.11200
H672        H  0.36749415  0.24545648  0.13242098     0.13200
C673        C  0.18042646  0.32903323  0.27444398     0.19300
C674        C  0.15577595  0.32288922  0.27005367    -0.18800
C675        C  0.13811508  0.34114394  0.26631793    -0.11000
C676        C  0.14475647  0.36595317  0.26740453     0.21600
C677        C  0.16933978  0.37206516  0.27217036    -0.20400
C678        C  0.18705102  0.35384191  0.27543350    -0.11200
C679        C  0.12631011  0.38584921  0.26544945    -0.15400
C680        C  0.10567932  0.38430919  0.25163602    -0.29200
C681        C  0.19874003  0.30933567  0.27876198    -0.03500
C682        C  0.22207881  0.31118192  0.27077046    -0.40000
H683        H  0.15019543  0.30390908  0.26946686     0.12700
H684        H  0.11920283  0.33580914  0.26335118     0.12400
H685        H  0.17484250  0.39103578  0.27346242     0.11800
H686        H  0.20578435  0.35920126  0.27939248     0.12000
H687        H  0.13040154  0.40282430  0.27504918     0.14800
H688        H  0.10263267  0.36844461  0.23991525     0.13500
H689        H  0.19253760  0.29241495  0.28737855     0.11200
H690        H  0.22770792  0.32715844  0.26010796     0.13200
C691        C  0.12329419  0.01084661  0.45111415     0.19300
C692        C  0.12786459  0.03602938  0.44955896    -0.18800
C693        C  0.15169812  0.04494792  0.44690889    -0.11000
C694        C  0.17174266  0.02884792  0.44537800     0.21600
C695        C  0.16733653  0.00362518  0.44721568    -0.20400
C696        C  0.14335259  0.99463220  0.44997015    -0.11200
C697        C  0.19733504  0.03806206  0.44253051    -0.15400
C698        C  0.20231681  0.05940384  0.43094460    -0.29200
C699        C  0.09757753  0.00302615  0.45607435    -0.03500
C700        C  0.08983904  0.97981170  0.45901315    -0.40000
H701        H  0.11291428  0.04900935  0.45092492     0.12700
H702        H  0.15431989  0.06453098  0.44666002     0.12400
H703        H  0.18249294  0.99084829  0.44645006     0.11800
H704        H  0.14084699  0.97511985  0.45156879     0.12000
H705        H  0.21220589  0.02656964  0.44916260     0.14800
H706        H  0.18729480  0.06940951  0.42236963     0.13500
H707        H  0.08452791  0.01764506  0.45958053     0.11200
H708        H  0.10203995  0.96450887  0.45588293     0.13200
C709        C  0.26528076  0.19823628  0.33438974     0.19300
C710        C  0.26779968  0.17370531  0.32731788    -0.18800
C711        C  0.26765598  0.15508412  0.34528794    -0.11000
C712        C  0.26553824  0.16069254  0.37081950     0.21600
C713        C  0.26361512  0.18526411  0.37797467    -0.20400
C714        C  0.26318801  0.20388970  0.35992170    -0.11200
C715        C  0.26570327  0.14124868  0.39026871    -0.15400
C716        C  0.25433987  0.11970602  0.38686962    -0.29200
C717        C  0.26654353  0.21745806  0.31477771    -0.03500
C718        C  0.25399510  0.23864831  0.31572529    -0.40000
H719        H  0.26981415  0.16893924  0.30778932     0.12700
H720        H  0.26972063  0.13634836  0.33923129     0.12400
H721        H  0.26220779  0.19001717  0.39755777     0.11800
H722        H  0.26186731  0.22268586  0.36598240     0.12000
H723        H  0.27360339  0.14542165  0.40840946     0.14800
H724        H  0.24412751  0.11663320  0.36971452     0.13500
H725        H  0.27743062  0.21340900  0.29827526     0.11200
H726        H  0.24150371  0.24217105  0.33111851     0.13200
C727        C  0.97242808  0.44021917  0.83062967     0.19300
C728        C  0.99079578  0.45714853  0.83679553    -0.18800
C729        C  0.99976171  0.45862529  0.86134402    -0.11000
C730        C  0.99076565  0.44280949  0.88013655     0.21600
C731        C  0.97341830  0.42503148  0.87350342    -0.20400
C732        C  0.96448474  0.42360022  0.84907660    -0.11200
C733        C  0.99634845  0.44612380  0.90721210    -0.15400
C734        C  0.01499448  0.45969734  0.91613343    -0.29200
C735        C  0.96131742  0.44045654  0.80515363    -0.03500
C736        C  0.93742109  0.43496822  0.80165753    -0.40000
H737        H  0.99739988  0.46999877  0.82287929     0.12700
H738        H  0.01276504  0.47292834  0.86562633     0.12400
H739        H  0.96620024  0.41257759  0.88748423     0.11800
H740        H  0.95107428  0.40963683  0.84478919     0.12000
H741        H  0.98301708  0.43878104  0.92038909     0.14800
H742        H  0.02874555  0.46707039  0.90352069     0.13500
H743        H  0.97281626  0.44573909  0.78948316     0.11200
H744        H  0.92635568  0.43069219  0.81800155     0.13200
C745        C  0.97317188  0.54409150  0.17101863     0.19300
C746        C  0.99004819  0.52648243  0.16278028    -0.18800
C747        C  0.99686035  0.52521580  0.13749955    -0.11000
C748        C  0.98715759  0.54184170  0.11987904     0.21600
C749        C  0.97065329  0.55968934  0.12823243    -0.20400
C750        C  0.96394809  0.56102271  0.15345034    -0.11200
C751        C  0.99190488  0.53973857  0.09246715    -0.15400
C752        C  0.01156992  0.52835259  0.08263899    -0.29200
C753        C  0.96569700  0.54463690  0.19794724    -0.03500
C754        C  0.94371951  0.55340848  0.20527813    -0.40000
H755        H  0.99751068  0.51325216  0.17583154     0.12700
H756        H  0.00903576  0.51067525  0.13178771     0.12400
H757        H  0.96281733  0.57266003  0.11513268     0.11800
H758        H  0.95164905  0.57550166  0.15904907     0.12000
H759        H  0.97774505  0.54651503  0.07990908     0.14800
H760        H  0.02592623  0.52149858  0.09484211     0.13500
H761        H  0.97846726  0.53755384  0.21174534     0.11200
H762        H  0.93101165  0.55962794  0.19098932     0.13200
C763        C  0.00369893  0.44102286  0.11547211     0.19300
C764        C  0.99722819  0.45161369  0.13843522    -0.18800
C765        C  0.00864389  0.44441030  0.16068164    -0.11000
C766        C  0.02714864  0.42648537  0.16056301     0.21600
C767        C  0.03293817  0.41510548  0.13780643    -0.20400
C768        C  0.02151292  0.42235109  0.11546229    -0.11200
C769        C  0.04067314  0.41923529  0.18372084    -0.15400
C770        C  0.04347152  0.43424107  0.20351912    -0.29200
C771        C  0.99326697  0.45199704  0.09216034    -0.03500
C772        C  0.99694233  0.44365960  0.06871138    -0.40000
H773        H  0.98356895  0.46597525  0.13913689     0.12700
H774        H  0.00284853  0.45300080  0.17786537     0.12400
H775        H  0.04692568  0.40106050  0.13718376     0.11800
H776        H  0.02737379  0.41379053  0.09831118     0.12000
H777        H  0.04898968  0.40125347  0.18398611     0.14800
H778        H  0.03537984  0.45232512  0.20278711     0.13500
H779        H  0.98404890  0.46946676  0.09438004     0.11200
H780        H  0.00626739  0.42647116  0.06557191     0.13200
C781        C  0.17011997  0.54954636  0.04607112     0.19300
C782        C  0.15682211  0.56507013  0.03009931    -0.18800
C783        C  0.13332968  0.55855329  0.02184201    -0.11000
C784        C  0.12257248  0.53655526  0.02987982     0.21600
C785        C  0.13579020  0.52115661  0.04602098    -0.20400
C786        C  0.15938142  0.52746849  0.05392998    -0.11200
C787        C  0.09729558  0.52940836  0.02279337    -0.15400
C788        C  0.08663736  0.53526917  0.00086993    -0.29200
C789        C  0.19425299  0.55765238  0.05584232    -0.03500
C790        C  0.21231101  0.54203083  0.06222199    -0.40000
H791        H  0.16459198  0.58235037  0.02412843     0.12700
H792        H  0.12338308  0.57104168  0.00982664     0.12400
H793        H  0.12777222  0.50419893  0.05262352     0.11800
H794        H  0.16881672  0.51543204  0.06683016     0.12000
H795        H  0.08784815  0.51684376  0.03533336     0.14800
H796        H  0.09653676  0.54577923  0.98687342     0.13500
H797        H  0.19734888  0.57718396  0.05749334     0.11200
H798        H  0.21032659  0.52269915  0.05821616     0.13200
C799        C  0.87113754  0.45976078  0.01003577     0.19300
C800        C  0.86574144  0.43710638  0.02117090    -0.18800
C801        C  0.84144759  0.43103028  0.02741962    -0.11000
C802        C  0.82203662  0.44753211  0.02277323     0.21600
C803        C  0.82733706  0.46941649  0.01018721    -0.20400
C804        C  0.85159765  0.47556846  0.00414067    -0.11200
C805        C  0.79634618  0.44280001  0.03147443    -0.15400
C806        C  0.79162729  0.42981126  0.05237865    -0.29200
C807        C  0.89673141  0.46894943  0.00697366    -0.03500
C808        C  0.91734115  0.45520047  0.00549878    -0.40000
H809        H  0.88029012  0.42452676  0.02608938     0.12700
H810        H  0.83801435  0.41353482  0.03621540     0.12400
H811        H  0.81280052  0.48230183  0.00601467     0.11800
H812        H  0.85520126  0.49313165  0.99547321     0.12000
H813        H  0.78134920  0.45109919  0.02114883     0.14800
H814        H  0.80710493  0.42243720  0.06272766     0.13500
H815        H  0.89870855  0.48870894  0.00598259     0.11200
H816        H  0.91636712  0.43545968  0.00414227     0.13200
C817        C  0.98980697  0.15040917  0.44081713     0.19300
C818        C  0.99302224  0.13157507  0.42330986    -0.18800
C819        C  0.00410699  0.10946353  0.43008864    -0.11000
C820        C  0.01220419  0.10552184  0.45475904     0.21600
C821        C  0.01023983  0.12482173  0.47190898    -0.20400
C822        C  0.99911263  0.14695660  0.46514004    -0.11200
C823        C  0.02096731  0.08126999  0.46404950    -0.15400
C824        C  0.01639204  0.05989414  0.45243792    -0.29200
C825        C  0.97559290  0.17249158  0.43292389    -0.03500
C826        C  0.96968677  0.19162092  0.44769711    -0.40000
H827        H  0.98635692  0.13372025  0.40434493     0.12700
H828        H  0.00587315  0.09552119  0.41596574     0.12400
H829        H  0.01651024  0.12244864  0.49098303     0.11800
H830        H  0.99739959  0.16086612  0.47928458     0.12000
H831        H  0.02836752  0.08067760  0.48292076     0.14800
H832        H  0.00773014  0.05965336  0.43421314     0.13500
H833        H  0.96912100  0.17262624  0.41372925     0.11200
H834        H  0.97706792  0.19296524  0.46643722     0.13200
C835        C  0.68134397  0.13605855  0.25309794     0.19300
C836        C  0.69454153  0.14444384  0.23222358    -0.18800
C837        C  0.71224233  0.16273623  0.23464179    -0.11000
C838        C  0.71733397  0.17296804  0.25814807     0.21600
C839        C  0.70468454  0.16408022  0.27920091    -0.20400
C840        C  0.68669729  0.14591561  0.27672713    -0.11200
C841        C  0.73610870  0.19246522  0.26122932    -0.15400
C842        C  0.74107247  0.20889837  0.24312928    -0.29200
C843        C  0.66265575  0.11667588  0.24922584    -0.03500
C844        C  0.64232842  0.11389697  0.26341128    -0.40000
H845        H  0.69099514  0.13692127  0.21386664     0.12700
H846        H  0.72218095  0.16850238  0.21811951     0.12400
H847        H  0.70856044  0.17139969  0.29756841     0.11800
H848        H  0.67737721  0.13939090  0.29332640     0.12000
H849        H  0.74517899  0.19405708  0.27924437     0.14800
H850        H  0.73070573  0.20858719  0.22579986     0.13500
H851        H  0.66542717  0.10514997  0.23306035     0.11200
H852        H  0.63986910  0.12533025  0.27975212     0.13200
C853        C  0.75893010  0.35051214  0.14309553     0.19300
C854        C  0.77686854  0.34948331  0.16183989    -0.18800
C855        C  0.77695040  0.33059760  0.17944327    -0.11000
C856        C  0.75912979  0.31191106  0.17855894     0.21600
C857        C  0.74099485  0.31311164  0.15992698    -0.20400
C858        C  0.74089248  0.33209305  0.14232233    -0.11200
C859        C  0.75872046  0.29090079  0.19644307    -0.15400
C860        C  0.77640424  0.28654082  0.21345338    -0.29200
C861        C  0.76040607  0.37058252  0.12434046    -0.03500
C862        C  0.74157833  0.37753012  0.10965376    -0.40000
H863        H  0.79095879  0.36342461  0.16290811     0.12700
H864        H  0.79108826  0.33106462  0.19354025     0.12400
H865        H  0.72701590  0.29907725  0.15873327     0.11800
H866        H  0.72702457  0.33180945  0.12787881     0.12000
H867        H  0.74323972  0.27840413  0.19545464     0.14800
H868        H  0.79215281  0.29846707  0.21501749     0.13500
H869        H  0.77751676  0.38073636  0.12346403     0.11200
H870        H  0.72371765  0.36905255  0.11200691     0.13200
C871        C  0.87459162  0.23378498  0.35709427     0.19300
C872        C  0.87526676  0.24858493  0.33567911    -0.18800
C873        C  0.85715487  0.24667601  0.31737335    -0.11000
C874        C  0.83742761  0.23025830  0.32033181     0.21600
C875        C  0.83708093  0.21492132  0.34143356    -0.20400
C876        C  0.85541596  0.21670220  0.35974343    -0.11200
C877        C  0.81718805  0.22876799  0.30165576    -0.15400
C878        C  0.81137877  0.24773796  0.28675249    -0.29200
C879        C  0.89348742  0.23783841  0.37665240    -0.03500
C880        C  0.90023899  0.22104411  0.39377223    -0.40000
H881        H  0.88993509  0.26173725  0.33307091     0.12700
H882        H  0.85888273  0.25805003  0.30090095     0.12400
H883        H  0.82225763  0.20195861  0.34406076     0.11800
H884        H  0.85406715  0.20524786  0.37620676     0.12000
H885        H  0.80667052  0.21194400  0.30042520     0.14800
H886        H  0.82111636  0.26491631  0.28861269     0.13500
H887        H  0.90301276  0.25527313  0.37618278     0.11200
H888        H  0.89272165  0.20270193  0.39292192     0.13200
C889        C  0.01116197  0.55102550  0.87920777     0.19300
C890        C  0.00938023  0.53818313  0.85654812    -0.18800
C891        C  0.02098211  0.54668778  0.83481478    -0.11000
C892        C  0.03484096  0.56839222  0.83512643     0.21600
C893        C  0.03589223  0.58172047  0.85754573    -0.20400
C894        C  0.02429307  0.57319232  0.87932893    -0.11200
C895        C  0.04827856  0.57796835  0.81269519    -0.15400
C896        C  0.05370580  0.56466910  0.79211260    -0.29200
C897        C  0.00030594  0.53960524  0.90216831    -0.03500
C898        C  0.00366252  0.54746833  0.92587729    -0.40000
H899        H  0.99928084  0.52114893  0.85571103     0.12700
H900        H  0.01887705  0.53613066  0.81793135     0.12400
H901        H  0.04613051  0.59866852  0.85834996     0.11800
H902        H  0.02600258  0.58396777  0.89610773     0.12000
H903        H  0.05425104  0.59683347  0.81359040     0.14800
H904        H  0.04753063  0.54590155  0.79090678     0.13500
H905        H  0.99112198  0.52216921  0.89950643     0.11200
H906        H  0.01346285  0.56428408  0.92958028     0.13200
C907        C  0.17910798  0.95240073  0.54343250     0.19300
C908        C  0.17006895  0.97539224  0.55042787    -0.18800
C909        C  0.14483509  0.98049735  0.54919583    -0.11000
C910        C  0.12816718  0.96270020  0.54053132     0.21600
C911        C  0.13740599  0.93985705  0.53331927    -0.20400
C912        C  0.16248228  0.93478038  0.53462460    -0.11200
C913        C  0.10131155  0.96709734  0.53726651    -0.15400
C914        C  0.09034315  0.98910512  0.53833362    -0.29200
C915        C  0.20581849  0.94695162  0.54557423    -0.03500
C916        C  0.21382699  0.92447305  0.55172834    -0.40000
H917        H  0.18251915  0.98929723  0.55722945     0.12700
H918        H  0.13867380  0.99831378  0.55509195     0.12400
H919        H  0.12517535  0.92588944  0.52623229     0.11800
H920        H  0.16883888  0.91710642  0.52836369     0.12000
H921        H  0.09041740  0.95166609  0.53091585     0.14800
H922        H  0.10067498  0.00526942  0.54335299     0.13500
H923        H  0.21888199  0.96186983  0.54388785     0.11200
H924        H  0.20042251  0.91036136  0.55601449     0.13200
C925        C  0.15230864  0.64689799  0.74263684     0.19300
C926        C  0.17761619  0.64330310  0.73935665    -0.18800
C927        C  0.19377933  0.66315202  0.73926393    -0.11000
C928        C  0.18481492  0.68706309  0.74183064     0.21600
C929        C  0.15947193  0.69073965  0.74463883    -0.20400
C930        C  0.14334684  0.67082508  0.74534367    -0.11200
C931        C  0.20140656  0.70842050  0.73981165    -0.15400
C932        C  0.22403000  0.70862711  0.74986279    -0.29200
C933        C  0.13561475  0.62553138  0.74133153    -0.03500
C934        C  0.11438234  0.62391619  0.75417974    -0.40000
H935        H  0.18488061  0.62507206  0.73679402     0.12700
H936        H  0.21317819  0.65985623  0.73637798     0.12400
H937        H  0.15216110  0.70906081  0.74623003     0.11800
H938        H  0.12384993  0.67422671  0.74717263     0.12000
H939        H  0.19457718  0.72461810  0.73028733     0.14800
H940        H  0.23015366  0.69335465  0.76128502     0.13500
H941        H  0.14152154  0.61017226  0.73002938     0.11200
H942        H  0.10959749  0.63803188  0.76752628     0.13200
C943        C  0.26415920  0.84099179  0.62790511     0.19300
C944        C  0.25188861  0.81847392  0.62842059    -0.18800
C945        C  0.25407757  0.80285746  0.64900521    -0.11000
C946        C  0.26830673  0.80969169  0.66980162     0.21600
C947        C  0.28118083  0.83189158  0.66896232    -0.20400
C948        C  0.27904898  0.84749117  0.64831845    -0.11200
C949        C  0.27018060  0.79424796  0.69262207    -0.15400
C950        C  0.25314484  0.77757723  0.69917211    -0.29200
C951        C  0.25958576  0.85784160  0.60663343    -0.03500
C952        C  0.27510371  0.87577862  0.59973698    -0.40000
H953        H  0.24041872  0.81299925  0.61286779     0.12700
H954        H  0.24461444  0.78550814  0.64843338     0.12400
H955        H  0.29239388  0.83750873  0.68465143     0.11800
H956        H  0.28838695  0.86491938  0.64886115     0.12000
H957        H  0.28573274  0.79738147  0.70493084     0.14800
H958        H  0.23702398  0.77474510  0.68764907     0.13500
H959        H  0.24291098  0.85496414  0.59589180     0.11200
H960        H  0.29295893  0.87729320  0.60861256     0.13200
C961        C  0.35138561  0.75802755  0.85626178     0.19300
C962        C  0.34295380  0.77710266  0.84096116    -0.18800
C963        C  0.32614711  0.77255897  0.82178737    -0.11000
C964        C  0.31727128  0.74874993  0.81766864     0.21600
C965        C  0.32535941  0.72977318  0.83331399    -0.20400
C966        C  0.34226685  0.73429744  0.85238394    -0.11200
C967        C  0.29859962  0.74321606  0.79825875    -0.15400
C968        C  0.29492181  0.75720598  0.77787662    -0.29200
C969        C  0.36875281  0.76367974  0.87680425    -0.03500
C970        C  0.38529351  0.74737901  0.88533841    -0.40000
H971        H  0.34938089  0.79560098  0.84388326     0.12700
H972        H  0.31972885  0.78786542  0.81076065     0.12400
H973        H  0.31846708  0.71137590  0.83084893     0.11800
H974        H  0.34763717  0.71929188  0.86441154     0.12000
H975        H  0.28772426  0.72673015  0.80071223     0.14800
H976        H  0.30643771  0.77302488  0.77437149     0.13500
H977        H  0.36785854  0.78189970  0.88451953     0.11200
H978        H  0.38615370  0.72957008  0.87652470     0.13200
C979        C  0.57817585  0.83445982  0.03582263     0.19300
C980        C  0.58999854  0.85722074  0.03782515    -0.18800
C981        C  0.58024221  0.87820736  0.02645187    -0.11000
C982        C  0.55822277  0.87704668  0.01269215     0.21600
C983        C  0.54681259  0.85418857  0.00996484    -0.20400
C984        C  0.55656547  0.83318444  0.02132992    -0.11200
C985        C  0.54624026  0.89915270  0.00146641    -0.15400
C986        C  0.54988194  0.92200846  0.00999902    -0.29200
C987        C  0.58922321  0.81281569  0.04901138    -0.03500
C988        C  0.57788689  0.79100276  0.05210464    -0.40000
H989        H  0.60683473  0.85885921  0.04847076     0.12700
H990        H  0.59012729  0.89521703  0.02845176     0.12400
H991        H  0.52997663  0.85261508  0.99930144     0.11800
H992        H  0.54700507  0.81614488  0.01848993     0.12000
H993        H  0.53188807  0.89625204  0.98766506     0.14800
H994        H  0.56238279  0.92504724  0.02545124     0.13500
H995        H  0.60744489  0.81532098  0.05673001     0.11200
H996        H  0.55976381  0.78838305  0.04424560     0.13200
C997        C  0.45336529  0.88381211  0.98968043     0.19300
C998        C  0.44811203  0.87802652  0.96472437    -0.18800
C999        C  0.44299608  0.85407038  0.95765058    -0.11000
C1000       C  0.44275089  0.83509578  0.97547571     0.21600
C1001       C  0.44805367  0.84077653  0.00049905    -0.20400
C1002       C  0.45326421  0.86487865  0.00761122    -0.11200
C1003       C  0.43843659  0.80918092  0.96816464    -0.15400
C1004       C  0.42577265  0.80307937  0.94743206    -0.29200
C1005       C  0.46092794  0.90936419  0.99525599    -0.03500
C1006       C  0.46430200  0.91877950  0.01824492    -0.40000
H1007       H  0.44851804  0.89208144  0.95040865     0.12700
H1008       H  0.44009222  0.85051175  0.93800798     0.12400
H1009       H  0.44839181  0.82647668  0.01455119     0.11800
H1010       H  0.45782342  0.86832611  0.02693465     0.12000
H1011       H  0.44564329  0.79507835  0.98038989     0.14800
H1012       H  0.41704581  0.81754373  0.93674634     0.13500
H1013       H  0.46518842  0.92081258  0.97916956     0.11200
H1014       H  0.46030891  0.90814044  0.03488492     0.13200
C1015       C  0.58271675  0.03369067  0.16783331     0.19300
C1016       C  0.57439656  0.00984460  0.16322677    -0.18800
C1017       C  0.56991793  0.00187178  0.13881069    -0.11000
C1018       C  0.57344414  0.01776473  0.11834783     0.21600
C1019       C  0.58258483  0.04129725  0.12290098    -0.20400
C1020       C  0.58699687  0.04928062  0.14726627    -0.11200
C1021       C  0.56611362  0.01158040  0.09228673    -0.15400
C1022       C  0.55029104  0.99357091  0.08647482    -0.29200
C1023       C  0.58545129  0.04186111  0.19426950    -0.03500
C1024       C  0.59766863  0.06220489  0.20104099    -0.40000
H1025       H  0.57102738  0.99738694  0.17863650     0.12700
H1026       H  0.56347535  0.98338488  0.13626019     0.12400
H1027       H  0.58540567  0.05398674  0.10756768     0.11800
H1028       H  0.59285186  0.06796727  0.14968665     0.12000
H1029       H  0.57122834  0.02452296  0.07771318     0.14800
H1030       H  0.54368315  0.98109052  0.10073505     0.13500
H1031       H  0.57747430  0.03029369  0.20864747     0.11200
H1032       H  0.60744035  0.07268057  0.18698632     0.13200
C1033       C  0.43806079  0.99119292  0.11797266     0.19300
C1034       C  0.41963369  0.97405283  0.12332656    -0.18800
C1035       C  0.41558965  0.96610363  0.14784526    -0.11000
C1036       C  0.43023613  0.97484519  0.16757057     0.21600
C1037       C  0.44745881  0.99324318  0.16256748    -0.20400
C1038       C  0.45152533  0.00123304  0.13800686    -0.11200
C1039       C  0.42887337  0.96394186  0.19305346    -0.15400
C1040       C  0.42475586  0.93987525  0.19617025    -0.29200
C1041       C  0.44522694  0.99516295  0.09138488    -0.03500
C1042       C  0.45934145  0.01388059  0.08365327    -0.40000
H1043       H  0.40895849  0.96606324  0.10834858     0.12700
H1044       H  0.40145946  0.95257004  0.15120932     0.12400
H1045       H  0.45881608  0.00039502  0.17747098     0.11800
H1046       H  0.46627755  0.01408018  0.13479878     0.12000
H1047       H  0.43255615  0.97555903  0.20899185     0.14800
H1048       H  0.42213395  0.92877992  0.17958713     0.13500
H1049       H  0.44116096  0.98050943  0.07836003     0.11200
H1050       H  0.46335412  0.02883652  0.09624818     0.13200
C1051       C  0.43579657  0.16329227  0.07315311     0.19300
C1052       C  0.42388159  0.15046562  0.05393344    -0.18800
C1053       C  0.43308967  0.12798543  0.04548767    -0.11000
C1054       C  0.45418011  0.11773255  0.05655148     0.21600
C1055       C  0.46539498  0.13024131  0.07642986    -0.20400
C1056       C  0.45639397  0.15270188  0.08461050    -0.11200
C1057       C  0.46642801  0.09510918  0.04738702    -0.15400
C1058       C  0.45819826  0.07979322  0.02942700    -0.29200
C1059       C  0.42643969  0.18753331  0.08124129    -0.03500
C1060       C  0.44161923  0.20576675  0.08817097    -0.40000
H1061       H  0.40781869  0.15819555  0.04497170     0.12700
H1062       H  0.42395003  0.11909542  0.03006903     0.12400
H1063       H  0.48155183  0.12279078  0.08547699     0.11800
H1064       H  0.46556890  0.16175263  0.09995903     0.12000
H1065       H  0.48419574  0.09123220  0.05576202     0.14800
H1066       H  0.44028266  0.08222857  0.02095890     0.13500
H1067       H  0.40681344  0.19090223  0.08009378     0.11200
H1068       H  0.46134790  0.20316576  0.08671491     0.13200
C1069       C  0.57118129  0.16645326  0.94840905     0.19300
C1070       C  0.57633952  0.15572677  0.97170770    -0.18800
C1071       C  0.56875425  0.13179691  0.97705964    -0.11000
C1072       C  0.55549000  0.11829310  0.95924896     0.21600
C1073       C  0.55040437  0.12906485  0.93596654    -0.20400
C1074       C  0.55823955  0.15279615  0.93052309    -0.11200
C1075       C  0.54395026  0.09437860  0.96521229    -0.15400
C1076       C  0.55134456  0.07911120  0.98356769    -0.29200
C1077       C  0.57820693  0.19229073  0.94357831    -0.03500
C1078       C  0.58456368  0.20032753  0.92066538    -0.40000
H1079       H  0.58603371  0.16599438  0.98588888     0.12700
H1080       H  0.57236998  0.12440370  0.99547523     0.12400
H1081       H  0.53980297  0.11926241  0.92210549     0.11800
H1082       H  0.55333664  0.16072505  0.91264114     0.12000
H1083       H  0.52772979  0.08961523  0.95442569     0.14800
H1084       H  0.56819314  0.08256376  0.99378447     0.13500
H1085       H  0.57904111  0.20470961  0.95934862     0.11200
H1086       H  0.58616663  0.18727597  0.90550266     0.13200
C1087       C  0.00752355  0.10137832  0.55099145     0.19300
C1088       C  0.99838644  0.12451014  0.54443241    -0.18800
C1089       C  0.00966520  0.14584973  0.55319137    -0.11000
C1090       C  0.03072212  0.14454827  0.56845898     0.21600
C1091       C  0.03914022  0.12142303  0.57595962    -0.20400
C1092       C  0.02785185  0.10009972  0.56724130    -0.11200
C1093       C  0.04491095  0.16664098  0.57626416    -0.15400
C1094       C  0.04499658  0.18773709  0.56307437    -0.29200
C1095       C  0.99754380  0.07933576  0.53812905    -0.03500
C1096       C  0.00081760  0.05630016  0.54649431    -0.40000
H1097       H  0.98280421  0.12609251  0.53194465     0.12700
H1098       H  0.00195555  0.16324343  0.54767286     0.12400
H1099       H  0.05521431  0.11980865  0.58777903     0.11800
H1100       H  0.03597045  0.08276703  0.57231631     0.12000
H1101       H  0.05674547  0.16467731  0.59242033     0.14800
H1102       H  0.03344845  0.18903912  0.54660690     0.13500
H1103       H  0.98916241  0.08215082  0.51990036     0.11200
H1104       H  0.00886471  0.05312322  0.56476393     0.13200
C1105       C  0.46252391  0.00019048  0.88420144     0.19300
C1106       C  0.44013980  0.01292234  0.88157655    -0.18800
C1107       C  0.43335325  0.02341981  0.85856107    -0.11000
C1108       C  0.44882531  0.02170742  0.83747866     0.21600
C1109       C  0.47073293  0.00831429  0.83997274    -0.20400
C1110       C  0.47745350  0.99776833  0.86290864    -0.11200
C1111       C  0.44334100  0.03369440  0.81273485    -0.15400
C1112       C  0.42506077  0.05001498  0.80857491    -0.29200
C1113       C  0.47212289  0.99095561  0.90884968    -0.03500
C1114       C  0.45988395  0.99194541  0.93083392    -0.40000
H1115       H  0.42790349  0.01543738  0.89723401     0.12700
H1116       H  0.41604312  0.03298320  0.85766780     0.12400
H1117       H  0.48304176  0.00637671  0.82418922     0.11800
H1118       H  0.49472988  0.98804934  0.86411933     0.12000
H1119       H  0.45598034  0.02970125  0.79764297     0.14800
H1120       H  0.41320307  0.05513952  0.82392971     0.13500
H1121       H  0.49117475  0.98503424  0.90925415     0.11200
H1122       H  0.44108700  0.99832583  0.93143538     0.13200
C1123       C  0.17447285  0.43874394  0.96362933     0.19300
C1124       C  0.16721913  0.44419008  0.98823320    -0.18800
C1125       C  0.14245484  0.44864059  0.99407508    -0.11000
C1126       C  0.12429026  0.44788374  0.97531526     0.21600
C1127       C  0.13159741  0.44258519  0.95075559    -0.20400
C1128       C  0.15625157  0.43807533  0.94494581    -0.11200
C1129       C  0.09809264  0.45479867  0.97987393    -0.15400
C1130       C  0.08711360  0.45492297  0.00249284    -0.29200
C1131       C  0.20117037  0.43514291  0.95780109    -0.03500
C1132       C  0.20914975  0.42279836  0.93752174    -0.40000
H1133       H  0.18081137  0.44524827  0.00296922     0.12700
H1134       H  0.13783949  0.45346138  0.01309267     0.12400
H1135       H  0.11817300  0.44236306  0.93581683     0.11800
H1136       H  0.16093214  0.43489489  0.92558852     0.12000
H1137       H  0.08760367  0.46100403  0.96377070     0.14800
H1138       H  0.09696455  0.44850277  0.01886554     0.13500
H1139       H  0.21443376  0.44231263  0.97100132     0.11200
H1140       H  0.19564420  0.41396356  0.92571110     0.13200
C1141       C  0.17703868  0.22199372  0.68095789     0.19300
C1142       C  0.18145275  0.21939267  0.65522723    -0.18800
C1143       C  0.16196323  0.21906622  0.63809927    -0.11000
C1144       C  0.13751589  0.22077994  0.64641432     0.21600
C1145       C  0.13304632  0.22265111  0.67220717    -0.20400
C1146       C  0.15256617  0.22352930  0.68929778    -0.11200
C1147       C  0.11638853  0.21976576  0.62870814    -0.15400
C1148       C  0.11705700  0.22995875  0.60572308    -0.29200
C1149       C  0.19825911  0.22242312  0.69861672    -0.03500
C1150       C  0.19842698  0.23595481  0.71961030    -0.40000
H1151       H  0.20008882  0.21786722  0.64832732     0.12700
H1152       H  0.16602718  0.21697943  0.61840892     0.12400
H1153       H  0.11438102  0.22366663  0.67913089     0.11800
H1154       H  0.14845650  0.22492584  0.70904296     0.12000
H1155       H  0.09930453  0.21180428  0.63537509     0.14800
H1156       H  0.13325271  0.24017312  0.60005749     0.13500
H1157       H  0.21482281  0.21269012  0.69328254     0.11200
H1158       H  0.18267024  0.24733381  0.72392333     0.13200
C1159       C  0.31547883  0.18358766  0.76618476     0.19300
C1160       C  0.34096696  0.18761621  0.76554146    -0.18800
C1161       C  0.35748234  0.16804377  0.76791441    -0.11000
C1162       C  0.34879463  0.14406294  0.77157400     0.21600
C1163       C  0.32334534  0.14018172  0.77289215    -0.20400
C1164       C  0.30686899  0.15962136  0.76998605    -0.11200
C1165       C  0.36565658  0.12277762  0.77456363    -0.15400
C1166       C  0.38702421  0.12076546  0.76203350    -0.29200
C1167       C  0.29818982  0.20466387  0.76418576    -0.03500
C1168       C  0.27602913  0.20278891  0.75311423    -0.40000
H1169       H  0.34810042  0.20593150  0.76303071     0.12700
H1170       H  0.37700298  0.17176048  0.76737750     0.12400
H1171       H  0.31616392  0.12196249  0.77596544     0.11800
H1172       H  0.28738231  0.15592334  0.77132186     0.12000
H1173       H  0.35920479  0.10731408  0.78554650     0.14800
H1174       H  0.39223519  0.13510011  0.74896505     0.13500
H1175       H  0.30405510  0.22219596  0.77152331     0.11200
H1176       H  0.27100386  0.18577922  0.74407338     0.13200
C1177       C  0.25749485  0.34953484  0.84998466     0.19300
C1178       C  0.24243943  0.34864629  0.82871950    -0.18800
C1179       C  0.24355859  0.32896287  0.81218319    -0.11000
C1180       C  0.25948020  0.30915440  0.81671927     0.21600
C1181       C  0.27515964  0.31037538  0.83759149    -0.20400
C1182       C  0.27416109  0.33027324  0.85411848    -0.11200
C1183       C  0.26012650  0.28714914  0.80010269    -0.15400
C1184       C  0.24130414  0.28094659  0.78497336    -0.29200
C1185       C  0.25376741  0.36998600  0.86799871    -0.03500
C1186       C  0.27020527  0.37733417  0.88533579    -0.40000
H1187       H  0.22955997  0.36326803  0.82490839     0.12700
H1188       H  0.23188978  0.32955119  0.79586014     0.12400
H1189       H  0.28779972  0.29557778  0.84148564     0.11800
H1190       H  0.28585204  0.33006695  0.87045917     0.12000
H1191       H  0.27618239  0.27540351  0.80089160     0.14800
H1192       H  0.22476275  0.29193349  0.78484252     0.13500
H1193       H  0.23658032  0.37990879  0.86637188     0.11200
H1194       H  0.28838613  0.36924394  0.88570838     0.13200
C1195       C  0.88496651  0.55090816  0.95816643     0.19300
C1196       C  0.86667137  0.53604298  0.94777710    -0.18800
C1197       C  0.84356824  0.54538792  0.94217108    -0.11000
C1198       C  0.83807582  0.57003134  0.94670785     0.21600
C1199       C  0.85639007  0.58510858  0.95698475    -0.20400
C1200       C  0.87964850  0.57558450  0.96294068    -0.11200
C1201       C  0.81415142  0.58049022  0.93861881    -0.15400
C1202       C  0.79350160  0.56688835  0.93753725    -0.29200
C1203       C  0.90927563  0.53953584  0.96264170    -0.03500
C1204       C  0.92598086  0.54653420  0.97983940    -0.40000
H1205       H  0.87032219  0.51699993  0.94375911     0.12700
H1206       H  0.83035621  0.53338836  0.93341690     0.12400
H1207       H  0.85273520  0.60428033  0.96022162     0.11800
H1208       H  0.89350611  0.58760849  0.97055601     0.12000
H1209       H  0.81381835  0.59949103  0.93276759     0.14800
H1210       H  0.79354307  0.54875133  0.94584525     0.13500
H1211       H  0.91252301  0.52271702  0.95242309     0.11200
H1212       H  0.92317827  0.56285126  0.99093197     0.13200
C1213       C  0.00092838  0.86348996  0.54560293     0.19300
C1214       C  0.99106925  0.84506320  0.53030406    -0.18800
C1215       C  0.97889499  0.82479660  0.54071753    -0.11000
C1216       C  0.97646236  0.82235626  0.56683348     0.21600
C1217       C  0.98705732  0.84035563  0.58209122    -0.20400
C1218       C  0.99926123  0.86053310  0.57170740    -0.11200
C1219       C  0.96186269  0.80239359  0.57900776    -0.15400
C1220       C  0.95583106  0.78096999  0.56811197    -0.29200
C1221       C  0.01145761  0.88597893  0.53361435    -0.03500
C1222       C  0.01263117  0.90788298  0.54510369    -0.40000
H1223       H  0.99203258  0.84677186  0.51014380     0.12700
H1224       H  0.97071779  0.81163985  0.52820014     0.12400
H1225       H  0.98564985  0.83895449  0.60224948     0.11800
H1226       H  0.00715696  0.87379876  0.58427992     0.12000
H1227       H  0.95643134  0.80535002  0.59829002     0.14800
H1228       H  0.96297954  0.77677796  0.54968979     0.13500
H1229       H  0.01529602  0.88526345  0.51369977     0.11200
H1230       H  0.00685871  0.90951673  0.56441914     0.13200
C1231       C  0.73708877  0.64130241  0.83526025     0.19300
C1232       C  0.71668374  0.65476274  0.82704133    -0.18800
C1233       C  0.71932413  0.67337795  0.80922679    -0.11000
C1234       C  0.74255480  0.67899548  0.79913487     0.21600
C1235       C  0.76275997  0.66477497  0.80640476    -0.20400
C1236       C  0.76013165  0.64614883  0.82423055    -0.11200
C1237       C  0.74624810  0.69924784  0.78079228    -0.15400
C1238       C  0.73164765  0.71906488  0.77998662    -0.29200
C1239       C  0.73349554  0.62241696  0.85518808    -0.03500
C1240       C  0.75190506  0.61434228  0.86990934    -0.40000
H1241       H  0.69863159  0.65110711  0.83471290     0.12700
H1242       H  0.70307662  0.68317257  0.80332421     0.12400
H1243       H  0.78074455  0.66831102  0.79850968     0.11800
H1244       H  0.77620274  0.63556543  0.82904557     0.12000
H1245       H  0.76201312  0.69829153  0.76837363     0.14800
H1246       H  0.71665464  0.72077187  0.79323204     0.13500
H1247       H  0.71489107  0.61619385  0.85848863     0.11200
H1248       H  0.77007659  0.62197012  0.86710898     0.13200
C1249       C  0.85042672  0.74688471  0.65195966     0.19300
C1250       C  0.82564642  0.74183878  0.64689336    -0.18800
C1251       C  0.80792086  0.74334592  0.66577252    -0.11000
C1252       C  0.81471804  0.74934577  0.69034035     0.21600
C1253       C  0.83952290  0.75421633  0.69551221    -0.20400
C1254       C  0.85720468  0.75330991  0.67644886    -0.11200
C1255       C  0.79635748  0.74931072  0.71093733    -0.15400
C1256       C  0.77361061  0.75838398  0.70788345    -0.29200
C1257       C  0.86893621  0.74287189  0.63195271    -0.03500
C1258       C  0.89019384  0.75539723  0.62992079    -0.40000
H1259       H  0.82002254  0.73646218  0.62828338     0.12700
H1260       H  0.78902313  0.73899285  0.66133349     0.12400
H1261       H  0.84521971  0.75863930  0.71435916     0.11800
H1262       H  0.87624749  0.75667998  0.68109992     0.12000
H1263       H  0.80198665  0.74269940  0.72924021     0.14800
H1264       H  0.76879993  0.76723176  0.69034170     0.13500
H1265       H  0.86459476  0.72918379  0.61797082     0.11200
H1266       H  0.89371184  0.77077740  0.64216781     0.13200
C1267       C  0.55622512  0.99979996  0.88822957     0.19300
C1268       C  0.54581745  0.00656933  0.86520794    -0.18800
C1269       C  0.55264073  0.99487625  0.84306223    -0.11000
C1270       C  0.57010095  0.97590401  0.84338504     0.21600
C1271       C  0.58179869  0.97033723  0.86609256    -0.20400
C1272       C  0.57494158  0.98200902  0.88828131    -0.11200
C1273       C  0.57614489  0.96103335  0.82083436    -0.15400
C1274       C  0.56138954  0.95941163  0.80063246    -0.29200
C1275       C  0.54482391  0.00958062  0.91154739    -0.03500
C1276       C  0.55214817  0.00388085  0.93492241    -0.40000
H1277       H  0.53160908  0.02039604  0.86443778     0.12700
H1278       H  0.54386792  0.00065430  0.82592162     0.12400
H1279       H  0.59561932  0.95613051  0.86688352     0.11800
H1280       H  0.58373510  0.97613086  0.90535141     0.12000
H1281       H  0.59284577  0.95025072  0.82148359     0.14800
H1282       H  0.54470020  0.97015157  0.79985085     0.13500
H1283       H  0.52775566  0.01964316  0.90929526     0.11200
H1284       H  0.56903747  0.99392413  0.93809285     0.13200
C1285       C  0.63524211  0.86023215  0.76993493     0.19300
C1286       C  0.66079457  0.86341316  0.76934744    -0.18800
C1287       C  0.67641009  0.84337382  0.76625830    -0.11000
C1288       C  0.66674447  0.81964661  0.76419823     0.21600
C1289       C  0.64122484  0.81634820  0.76569418    -0.20400
C1290       C  0.62556504  0.83645871  0.76826486    -0.11200
C1291       C  0.68298273  0.79802736  0.76163123    -0.15400
C1292       C  0.70399265  0.79859111  0.74835586    -0.29200
C1293       C  0.61919853  0.88203306  0.77223533    -0.03500
C1294       C  0.59759976  0.88377007  0.76020081    -0.40000
H1295       H  0.66867447  0.88151583  0.77087254     0.12700
H1296       H  0.69605085  0.84642314  0.76592479     0.12400
H1297       H  0.63339271  0.79819471  0.76457479     0.11800
H1298       H  0.60595078  0.83336403  0.76926729     0.12000
H1299       H  0.67705010  0.78099928  0.77022666     0.14800
H1300       H  0.70901817  0.81503237  0.73813459     0.13500
H1301       H  0.62642367  0.89791101  0.78189373     0.11200
H1302       H  0.59168874  0.86884254  0.74830136     0.13200
C1303       C  0.45962309  0.34093045  0.08186218     0.19300
C1304       C  0.46504333  0.36232137  0.09527295    -0.18800
C1305       C  0.47178431  0.38388620  0.08273264    -0.11000
C1306       C  0.47287150  0.38442213  0.05646959     0.21600
C1307       C  0.46740223  0.36306179  0.04317305    -0.20400
C1308       C  0.46089986  0.34160582  0.05562176    -0.11200
C1309       C  0.47817443  0.40684797  0.04175742    -0.15400
C1310       C  0.49053155  0.42665032  0.04993944    -0.29200
C1311       C  0.45043706  0.31889880  0.09533317    -0.03500
C1312       C  0.45187073  0.29615739  0.08576481    -0.40000
H1313       H  0.46374184  0.36241702  0.11548281     0.12700
H1314       H  0.47535866  0.40015425  0.09354950     0.12400
H1315       H  0.46782010  0.36303743  0.02291328     0.11800
H1316       H  0.45597323  0.32590314  0.04449156     0.12000
H1317       H  0.47254118  0.40631103  0.02226541     0.14800
H1318       H  0.49760079  0.42743481  0.06888216     0.13500
H1319       H  0.44188768  0.32170532  0.11342215     0.11200
H1320       H  0.46260494  0.29317980  0.06894468     0.13200
C1321       C  0.55684540  0.33440693  0.93120590     0.19300
C1322       C  0.54984111  0.35410910  0.91581261    -0.18800
C1323       C  0.54162466  0.37614256  0.92613874    -0.11000
C1324       C  0.54031452  0.37895000  0.95222209     0.21600
C1325       C  0.54677369  0.35906168  0.96755497    -0.20400
C1326       C  0.55496034  0.33710091  0.95726912    -0.11200
C1327       C  0.53396872  0.40245431  0.96456564    -0.15400
C1328       C  0.52378253  0.42220975  0.95343153    -0.29200
C1329       C  0.56791779  0.31234682  0.91943309    -0.03500
C1330       C  0.57163776  0.29079797  0.93126565    -0.40000
H1331       H  0.55127985  0.35265225  0.89567383     0.12700
H1332       H  0.53715481  0.39104496  0.91363545     0.12400
H1333       H  0.54606132  0.36070088  0.98772416     0.11800
H1334       H  0.56063132  0.32275930  0.96993891     0.12000
H1335       H  0.53766454  0.40331792  0.98452112     0.14800
H1336       H  0.51837945  0.42184391  0.93393182     0.13500
H1337       H  0.57333762  0.31408222  0.89996861     0.11200
H1338       H  0.56431962  0.28782492  0.94988019     0.13200
C1339       C  0.67021714  0.47707556  0.05530423     0.19300
C1340       C  0.66344980  0.49306275  0.03592957    -0.18800
C1341       C  0.63923033  0.50170109  0.03407851    -0.11000
C1342       C  0.62138509  0.49481053  0.05192029     0.21600
C1343       C  0.62858063  0.47981920  0.07192735    -0.20400
C1344       C  0.65267581  0.47123017  0.07374836    -0.11200
C1345       C  0.59469099  0.50007927  0.04869309    -0.15400
C1346       C  0.58567862  0.51778363  0.03376256    -0.29200
C1347       C  0.69532619  0.46610712  0.05589828    -0.03500
C1348       C  0.69863357  0.44299248  0.06392272    -0.40000
H1349       H  0.67662138  0.49799421  0.02159168     0.12700
H1350       H  0.63439521  0.51273216  0.01800809     0.12400
H1351       H  0.61531754  0.47421151  0.08592582     0.11800
H1352       H  0.65744648  0.45969374  0.08949389     0.12000
H1353       H  0.58191592  0.48734908  0.05738011     0.14800
H1354       H  0.59800909  0.53091220  0.02514093     0.13500
H1355       H  0.71083264  0.47699374  0.04965918     0.11200
H1356       H  0.68239386  0.43253413  0.06899136     0.13200
C1357       C  0.66108562  0.53821374  0.92210222     0.19300
C1358       C  0.63724396  0.54529154  0.91513071    -0.18800
C1359       C  0.61662322  0.53259589  0.92406469    -0.11000
C1360       C  0.61940571  0.51227703  0.94007417     0.21600
C1361       C  0.64323599  0.50479171  0.94643646    -0.20400
C1362       C  0.66381179  0.51734945  0.93738416    -0.11200
C1363       C  0.59819378  0.50034923  0.95289453    -0.15400
C1364       C  0.57472938  0.50185221  0.94500997    -0.29200
C1365       C  0.68256468  0.55289889  0.91307797    -0.03500
C1366       C  0.70450851  0.55295877  0.92486012    -0.40000
H1367       H  0.63451804  0.56115762  0.90329236     0.12700
H1368       H  0.59862255  0.53944160  0.91920272     0.12400
H1369       H  0.64595986  0.48929564  0.95878618     0.11800
H1370       H  0.68174736  0.51052347  0.94248006     0.12000
H1371       H  0.60193551  0.49176173  0.97085882     0.14800
H1372       H  0.57054602  0.51018288  0.92707639     0.13500
H1373       H  0.67971975  0.56438386  0.89680032     0.11200
H1374       H  0.70642556  0.54212056  0.94175328     0.13200
C1375       C  0.53004419  0.62119352  0.04532315     0.19300
C1376       C  0.55511088  0.62643759  0.04829073    -0.18800
C1377       C  0.56315741  0.65021957  0.05284404    -0.11000
C1378       C  0.54626488  0.66955328  0.05478712     0.21600
C1379       C  0.52116624  0.66444975  0.05157077    -0.20400
C1380       C  0.51306623  0.64053332  0.04696599    -0.11200
C1381       C  0.55447520  0.69521845  0.05910741    -0.15400
C1382       C  0.57561412  0.70057811  0.07107368    -0.29200
C1383       C  0.52312534  0.59573245  0.03846403    -0.03500
C1384       C  0.50003853  0.58689174  0.03685219    -0.40000
H1385       H  0.56868871  0.61207658  0.04661400     0.12700
H1386       H  0.58271814  0.65338836  0.05412434     0.12400
H1387       H  0.50778022  0.67903896  0.05255903     0.11800
H1388       H  0.49365349  0.63752842  0.04415608     0.12000
H1389       H  0.54240114  0.70977750  0.05294190     0.14800
H1390       H  0.58622059  0.68564817  0.07895648     0.13500
H1391       H  0.53820133  0.58381276  0.03315683     0.11200
H1392       H  0.48437042  0.59797282  0.04202212     0.13200
C1393       C  0.46286470  0.67089162  0.93972687     0.19300
C1394       C  0.47791282  0.65690736  0.92396939    -0.18800
C1395       C  0.48493514  0.63321417  0.93078662    -0.11000
C1396       C  0.47664840  0.62295412  0.95338369     0.21600
C1397       C  0.46173840  0.63698753  0.96919336    -0.20400
C1398       C  0.45500224  0.66075381  0.96254909    -0.11200
C1399       C  0.48222343  0.59743128  0.96074560    -0.15400
C1400       C  0.50295199  0.58561076  0.95441502    -0.29200
C1401       C  0.45339546  0.69470055  0.93058772    -0.03500
C1402       C  0.44549671  0.71272047  0.94568596    -0.40000
H1403       H  0.48386706  0.66418567  0.90610523     0.12700
H1404       H  0.49606975  0.62271362  0.91797502     0.12400
H1405       H  0.45503707  0.62941118  0.98665660     0.11800
H1406       H  0.44280477  0.67068752  0.97481898     0.12000
H1407       H  0.46973181  0.58879174  0.97397141     0.14800
H1408       H  0.51699321  0.59467649  0.94334959     0.13500
H1409       H  0.45241604  0.69727255  0.91045414     0.11200
H1410       H  0.44855415  0.71159454  0.96571336     0.13200
C1411       C  0.39052289  0.49911227  0.05836371     0.19300
C1412       C  0.36763040  0.48855430  0.05298239    -0.18800
C1413       C  0.34590394  0.49868652  0.06234954    -0.11000
C1414       C  0.34656963  0.51989436  0.07715053     0.21600
C1415       C  0.36949627  0.52979687  0.08347600    -0.20400
C1416       C  0.39121253  0.51970910  0.07408230    -0.11200
C1417       C  0.32388939  0.53244160  0.08598954    -0.15400
C1418       C  0.30232032  0.53135834  0.07361995    -0.29200
C1419       C  0.41266422  0.49016962  0.04475624    -0.03500
C1420       C  0.43588234  0.49598876  0.05109005    -0.40000
H1421       H  0.36649796  0.47270414  0.04097608     0.12700
H1422       H  0.32868831  0.48992386  0.05778344     0.12400
H1423       H  0.37057362  0.54603011  0.09494445     0.11800
H1424       H  0.40826398  0.52891047  0.07829274     0.12000
H1425       H  0.32559724  0.54373686  0.10248490     0.14800
H1426       H  0.30118510  0.52028831  0.05687885     0.13500
H1427       H  0.40950448  0.48039272  0.02739976     0.11200
H1428       H  0.43959031  0.50533642  0.06851842     0.13200
C1429       C  0.34085282  0.46646595  0.93876772     0.19300
C1430       C  0.35849729  0.47601390  0.92218729    -0.18800
C1431       C  0.37894457  0.48899496  0.93100598    -0.11000
C1432       C  0.38251279  0.49251678  0.95684227     0.21600
C1433       C  0.36454746  0.48347310  0.97337181    -0.20400
C1434       C  0.34406629  0.47054902  0.96454388    -0.11200
C1435       C  0.40514751  0.50407887  0.96756831    -0.15400
C1436       C  0.42651270  0.50666793  0.95500860    -0.29200
C1437       C  0.32031015  0.45128083  0.92849356    -0.03500
C1438       C  0.29919493  0.44623063  0.94082992    -0.40000
H1439       H  0.35656187  0.47324811  0.90224061     0.12700
H1440       H  0.39186609  0.49601913  0.91743038     0.12400
H1441       H  0.36674016  0.48576206  0.99335235     0.11800
H1442       H  0.33132266  0.46314641  0.97810002     0.12000
H1443       H  0.40518968  0.50765585  0.98754852     0.14800
H1444       H  0.42767214  0.50142637  0.93553577     0.13500
H1445       H  0.32254830  0.44453332  0.90957377     0.11200
H1446       H  0.29584032  0.45469093  0.95881170     0.13200
C1447       C  0.05208333  0.48856389  0.38307194     0.19300
C1448       C  0.04048088  0.49558728  0.36069332    -0.18800
C1449       C  0.04741259  0.48539581  0.33777380    -0.11000
C1450       C  0.06634313  0.46795343  0.33668679     0.21600
C1451       C  0.07884989  0.46194205  0.35880751    -0.20400
C1452       C  0.07175499  0.47190949  0.38174506    -0.11200
C1453       C  0.07352654  0.45531651  0.31316021    -0.15400
C1454       C  0.05843232  0.45234735  0.29337911    -0.29200
C1455       C  0.04131132  0.49700058  0.40724246    -0.03500
C1456       C  0.05057221  0.49178580  0.43005309    -0.40000
H1457       H  0.02548906  0.50857625  0.36100944     0.12700
H1458       H  0.03783198  0.49121410  0.32108206     0.12400
H1459       H  0.09366452  0.44874802  0.35849660     0.11800
H1460       H  0.08130127  0.46571375  0.39826877     0.12000
H1461       H  0.09166411  0.44715572  0.31278716     0.14800
H1462       H  0.04035703  0.46064912  0.29357563     0.13500
H1463       H  0.02347884  0.50586064  0.40619757     0.11200
H1464       H  0.06829008  0.48303509  0.43201271     0.13200
C1465       C  0.95888195  0.48813382  0.38508888     0.19300
C1466       C  0.97276803  0.48780718  0.36288737    -0.18800
C1467       C  0.96449966  0.49963981  0.34109847    -0.11000
C1468       C  0.94185213  0.51208273  0.34087563     0.21600
C1469       C  0.92758879  0.51164132  0.36279696    -0.20400
C1470       C  0.93592733  0.50000109  0.38458202    -0.11200
C1471       C  0.93213252  0.52583106  0.31864480    -0.15400
C1472       C  0.94494804  0.53128634  0.29763622    -0.29200
C1473       C  0.97004083  0.47780644  0.40855442    -0.03500
C1474       C  0.95894332  0.47730096  0.43118298    -0.40000
H1475       H  0.99035073  0.47861103  0.36249239     0.12700
H1476       H  0.97600187  0.49891586  0.32466101     0.12400
H1477       H  0.90999884  0.52086186  0.36328457     0.11800
H1478       H  0.92440535  0.50101341  0.40096114     0.12000
H1479       H  0.91325991  0.53201199  0.31998524     0.14800
H1480       H  0.96356104  0.52463314  0.29551238     0.13500
H1481       H  0.98926743  0.47256484  0.40761131     0.11200
H1482       H  0.93999458  0.48290646  0.43315079     0.13200
C1483       C  0.06964840  0.52724538  0.66918371     0.19300
C1484       C  0.05461815  0.50710570  0.66374461    -0.18800
C1485       C  0.05279737  0.49815100  0.63927069    -0.11000
C1486       C  0.06630350  0.50899290  0.61963967     0.21600
C1487       C  0.08187533  0.52863666  0.62525993    -0.20400
C1488       C  0.08376188  0.53750623  0.64968593    -0.11200
C1489       C  0.06255452  0.50234992  0.59285595    -0.15400
C1490       C  0.05242154  0.48121565  0.58517331    -0.29200
C1491       C  0.07034008  0.53701394  0.69526148    -0.03500
C1492       C  0.07648818  0.56033491  0.70034859    -0.40000
H1493       H  0.04363877  0.49873519  0.67834429     0.12700
H1494       H  0.04001561  0.48344677  0.63576183     0.12400
H1495       H  0.09244401  0.53739591  0.61058051     0.11800
H1496       H  0.09637383  0.55237731  0.65309449     0.12000
H1497       H  0.06630115  0.51647600  0.57902380     0.14800
H1498       H  0.04846874  0.46685349  0.59860566     0.13500
H1499       H  0.06545105  0.52474007  0.71045213     0.11200
H1500       H  0.08083092  0.57254574  0.68495223     0.13200
C1501       C  0.96347638  0.49539546  0.63063183     0.19300
C1502       C  0.94056900  0.48407285  0.63442472    -0.18800
C1503       C  0.93342184  0.47652808  0.65836910    -0.11000
C1504       C  0.94902395  0.48000787  0.67907692     0.21600
C1505       C  0.97120995  0.49250688  0.67550708    -0.20400
C1506       C  0.97839860  0.50001244  0.65156083    -0.11200
C1507       C  0.94258813  0.47076853  0.70447593    -0.15400
C1508       C  0.92887297  0.45057131  0.70771123    -0.29200
C1509       C  0.97326979  0.50163723  0.60536597    -0.03500
C1510       C  0.96399276  0.49338539  0.58353399    -0.40000
H1511       H  0.92807110  0.48084938  0.61910919     0.12700
H1512       H  0.91560323  0.46803497  0.66056386     0.12400
H1513       H  0.98337387  0.49580193  0.69116079     0.11800
H1514       H  0.99604274  0.50890155  0.64930965     0.12000
H1515       H  0.94962624  0.48049096  0.72061164     0.14800
H1516       H  0.92246002  0.44080130  0.69133334     0.13500
H1517       H  0.99064952  0.51141357  0.60495292     0.11200
H1518       H  0.94728728  0.48265255  0.58311853     0.13200
C1519       C  0.07221131  0.31605059  0.52439673     0.19300
C1520       C  0.08629126  0.33732544  0.52771550    -0.18800
C1521       C  0.07917111  0.35955624  0.51684374    -0.11000
C1522       C  0.05772176  0.36105024  0.50223876     0.21600
C1523       C  0.04438931  0.33953530  0.49775904    -0.20400
C1524       C  0.05147292  0.31731280  0.50866897    -0.11200
C1525       C  0.04802532  0.38468410  0.49228670    -0.15400
C1526       C  0.05221649  0.40636087  0.50337369    -0.29200
C1527       C  0.07979892  0.29319333  0.53778526    -0.03500
C1528       C  0.06467865  0.27402461  0.54205093    -0.40000
H1529       H  0.10262262  0.33688659  0.53926443     0.12700
H1530       H  0.09044545  0.37550386  0.52007395     0.12400
H1531       H  0.02798060  0.34003513  0.48631085     0.11800
H1532       H  0.04055519  0.30131687  0.50466498     0.12000
H1533       H  0.03437672  0.38383348  0.47748034     0.14800
H1534       H  0.06399052  0.40728700  0.51969571     0.13500
H1535       H  0.09834468  0.29273618  0.54511790     0.11200
H1536       H  0.04613672  0.27457283  0.53472564     0.13200
C1537       C  0.96363291  0.36476118  0.48845977     0.19300
C1538       C  0.95977948  0.35755069  0.46362059    -0.18800
C1539       C  0.95678253  0.33296161  0.45744702    -0.11000
C1540       C  0.95736222  0.31470191  0.47605471     0.21600
C1541       C  0.96129066  0.32181521  0.50095807    -0.20400
C1542       C  0.96433377  0.34654762  0.50716897    -0.11200
C1543       C  0.95498397  0.28819841  0.46975730    -0.15400
C1544       C  0.94294115  0.28049238  0.44920905    -0.29200
C1545       C  0.96903452  0.39109100  0.49322806    -0.03500
C1546       C  0.97082792  0.40152913  0.51595098    -0.40000
H1547       H  0.95961652  0.37101686  0.44872186     0.12700
H1548       H  0.95480841  0.32839002  0.43790513     0.12400
H1549       H  0.96217571  0.30816652  0.51564579     0.11800
H1550       H  0.96788474  0.35107778  0.52647256     0.12000
H1551       H  0.96265380  0.27492869  0.48268845     0.14800
H1552       H  0.93354948  0.29399483  0.43780121     0.13500
H1553       H  0.97322810  0.40224577  0.47690834     0.11200
H1554       H  0.96697110  0.39113025  0.53277988     0.13200
C1555       C  0.94604770  0.65557930  0.55682002     0.19300
C1556       C  0.94125265  0.64447266  0.53368446    -0.18800
C1557       C  0.94665820  0.61970248  0.52986106    -0.11000
C1558       C  0.95731608  0.60566234  0.54909332     0.21600
C1559       C  0.96181225  0.61672948  0.57226444    -0.20400
C1560       C  0.95620755  0.64131804  0.57615247    -0.11200
C1561       C  0.96745918  0.58084363  0.54474834    -0.15400
C1562       C  0.96017988  0.56540150  0.52659905    -0.29200
C1563       C  0.94154482  0.68224674  0.56002837    -0.03500
C1564       C  0.93569042  0.69197389  0.58232260    -0.40000
H1565       H  0.93365111  0.65509287  0.51841704     0.12700
H1566       H  0.94359862  0.61198562  0.51153298     0.12400
H1567       H  0.97045333  0.60647944  0.58722899     0.11800
H1568       H  0.96084007  0.64931824  0.59400548     0.12000
H1569       H  0.98287982  0.57556326  0.55649653     0.14800
H1570       H  0.94395680  0.56927240  0.51549400     0.13500
H1571       H  0.94206168  0.69391767  0.54356540     0.11200
H1572       H  0.93273025  0.67986347  0.59817247     0.13200
C1573       C  0.06933693  0.65080084  0.43939609     0.19300
C1574       C  0.08528023  0.63399902  0.45092807    -0.18800
C1575       C  0.07667552  0.61104770  0.45886637    -0.11000
C1576       C  0.05198846  0.60444423  0.45498793     0.21600
C1577       C  0.03636413  0.62106061  0.44283474    -0.20400
C1578       C  0.04484998  0.64390296  0.43517272    -0.11200
C1579       C  0.04121130  0.58073352  0.46306050    -0.15400
C1580       C  0.05082271  0.56516898  0.48009385    -0.29200
C1581       C  0.07871277  0.67487565  0.43061708    -0.03500
C1582       C  0.06417979  0.69477561  0.42911036    -0.40000
H1583       H  0.10436146  0.63872145  0.45395047     0.12700
H1584       H  0.08940848  0.59857670  0.46770847     0.12400
H1585       H  0.01733630  0.61640904  0.43932488     0.11800
H1586       H  0.03224697  0.65591628  0.42546986     0.12000
H1587       H  0.02307506  0.57674195  0.45563147     0.14800
H1588       H  0.06871371  0.56845293  0.48830988     0.13500
H1589       H  0.09797532  0.67621696  0.42556357     0.11200
H1590       H  0.04567545  0.69383508  0.43663576     0.13200
C1591       C  0.44818366  0.06311010  0.66931066     0.19300
C1592       C  0.45800274  0.07909688  0.65120639    -0.18800
C1593       C  0.46414357  0.07078901  0.62719251    -0.11000
C1594       C  0.46039562  0.04620179  0.62065378     0.21600
C1595       C  0.45042870  0.03030445  0.63873431    -0.20400
C1596       C  0.44437175  0.03857129  0.66267944    -0.11200
C1597       C  0.46604965  0.03605232  0.59539423    -0.15400
C1598       C  0.47863468  0.04741646  0.57683572    -0.29200
C1599       C  0.44065377  0.07302572  0.69418132    -0.03500
C1600       C  0.43693598  0.05918409  0.71488200    -0.40000
H1601       H  0.46082627  0.09818076  0.65562642     0.12700
H1602       H  0.47143351  0.08378231  0.61385956     0.12400
H1603       H  0.44711035  0.01130386  0.63426657     0.11800
H1604       H  0.43612816  0.02574994  0.67561885     0.12000
H1605       H  0.46015689  0.01733272  0.59231435     0.14800
H1606       H  0.48572592  0.06574917  0.57926834     0.13500
H1607       H  0.43846289  0.09267178  0.69538109     0.11200
H1608       H  0.44133624  0.03987785  0.71436193     0.13200
C1609       C  0.53127490  0.95512909  0.61531527     0.19300
C1610       C  0.54035505  0.97077881  0.63385458    -0.18800
C1611       C  0.54382987  0.96258998  0.65825190    -0.11000
C1612       C  0.53825004  0.93835862  0.66489447     0.21600
C1613       C  0.52901298  0.92261036  0.64637749    -0.20400
C1614       C  0.52537620  0.93093190  0.62177422    -0.11200
C1615       C  0.54411493  0.92857546  0.69022150    -0.15400
C1616       C  0.54723979  0.94294856  0.71045216    -0.29200
C1617       C  0.52907608  0.96530450  0.58969860    -0.03500
C1618       C  0.51414209  0.95718810  0.57134861    -0.40000
H1619       H  0.54511535  0.98951640  0.62938186     0.12700
H1620       H  0.55181461  0.97517401  0.67148056     0.12400
H1621       H  0.52493021  0.90373983  0.65089346     0.11800
H1622       H  0.51862712  0.91831409  0.60785789     0.12000
H1623       H  0.54640490  0.90896955  0.69193030     0.14800
H1624       H  0.54252072  0.96216027  0.70921105     0.13500
H1625       H  0.53901543  0.98228339  0.58665158     0.11200
H1626       H  0.50361967  0.94048762  0.57354461     0.13200
C1627       C  0.33376686  0.07261160  0.47384933     0.19300
C1628       C  0.35468361  0.08768962  0.47366548    -0.18800
C1629       C  0.37700638  0.07966738  0.48381542    -0.11000
C1630       C  0.37897065  0.05621528  0.49449991     0.21600
C1631       C  0.35771948  0.04166794  0.49590044    -0.20400
C1632       C  0.33541707  0.04968310  0.48576937    -0.11200
C1633       C  0.40276446  0.04534899  0.50293665    -0.15400
C1634       C  0.42525868  0.05441952  0.49749559    -0.29200
C1635       C  0.31112657  0.08139639  0.46076697    -0.03500
C1636       C  0.29150461  0.06726256  0.45530615    -0.40000
H1637       H  0.35395218  0.10559652  0.46501183     0.12700
H1638       H  0.39260333  0.09182795  0.48282381     0.12400
H1639       H  0.35850874  0.02362208  0.50425359     0.11800
H1640       H  0.31978792  0.03761555  0.48719642     0.12000
H1641       H  0.40168972  0.02739506  0.51162214     0.14800
H1642       H  0.42721419  0.07183733  0.48803247     0.13500
H1643       H  0.31112244  0.10029626  0.45458993     0.11200
H1644       H  0.29077378  0.04854066  0.46185410     0.13200
C1645       C  0.39256932  0.93803233  0.49162201     0.19300
C1646       C  0.37279106  0.95456443  0.49276868    -0.18800
C1647       C  0.34991724  0.94713426  0.50211885    -0.11000
C1648       C  0.34632792  0.92296449  0.51048383     0.21600
C1649       C  0.36582379  0.90630246  0.50817697    -0.20400
C1650       C  0.38868391  0.91378140  0.49906954    -0.11200
C1651       C  0.32362231  0.91452034  0.52353563    -0.15400
C1652       C  0.30380562  0.92843224  0.52881578    -0.29200
C1653       C  0.41810149  0.94630280  0.48657469    -0.03500
C1654       C  0.42359988  0.96638699  0.47313821    -0.40000
H1655       H  0.37526106  0.97360356  0.48787507     0.12700
H1656       H  0.33559404  0.96068437  0.50354469     0.12400
H1657       H  0.36369809  0.88757385  0.51442952     0.11800
H1658       H  0.40364589  0.90075657  0.49864537     0.12000
H1659       H  0.32368190  0.89569593  0.53002210     0.14800
H1660       H  0.30211286  0.94674461  0.52128884     0.13500
H1661       H  0.43275107  0.93664815  0.49624002     0.11200
H1662       H  0.40934737  0.97569820  0.46259991     0.13200
C1663       C  0.54162117  0.07518694  0.32845108     0.19300
C1664       C  0.53759936  0.09156430  0.34824171    -0.18800
C1665       C  0.52195623  0.08545674  0.36810448    -0.11000
C1666       C  0.50984851  0.06278237  0.36855783     0.21600
C1667       C  0.51285318  0.04691198  0.34827950    -0.20400
C1668       C  0.52862239  0.05289146  0.32853369    -0.11200
C1669       C  0.49545873  0.05418005  0.39052361    -0.15400
C1670       C  0.50214828  0.05938771  0.41410377    -0.29200
C1671       C  0.55999045  0.08194754  0.30878789    -0.03500
C1672       C  0.56621527  0.06768479  0.28924200    -0.40000
H1673       H  0.54703492  0.10897887  0.34864057     0.12700
H1674       H  0.51962032  0.09834898  0.38321163     0.12400
H1675       H  0.50370626  0.02932881  0.34818411     0.11800
H1676       H  0.53069270  0.03962429  0.31383019     0.12000
H1677       H  0.48213370  0.03968463  0.38750066     0.14800
H1678       H  0.51740819  0.07172269  0.41741203     0.13500
H1679       H  0.56880599  0.09963173  0.31062457     0.11200
H1680       H  0.55686084  0.05051960  0.28620481     0.13200
C1681       C  0.47820575  0.96608626  0.36901736     0.19300
C1682       C  0.45324840  0.96453646  0.36258884    -0.18800
C1683       C  0.44605844  0.95833071  0.33840153    -0.11000
C1684       C  0.46370752  0.95344755  0.31992977     0.21600
C1685       C  0.48868007  0.95555355  0.32603171    -0.20400
C1686       C  0.49593622  0.96166818  0.35037418    -0.11200
C1687       C  0.45635628  0.94600809  0.29431176    -0.15400
C1688       C  0.43662863  0.93173165  0.29041401    -0.29200
C1689       C  0.48435582  0.97338397  0.39506967    -0.03500
C1690       C  0.50715659  0.97540308  0.40469130    -0.40000
H1691       H  0.43915030  0.96822842  0.37636198     0.12700
H1692       H  0.42663746  0.95760176  0.33414047     0.12400
H1693       H  0.50260067  0.95207303  0.31202696     0.11800
H1694       H  0.51534877  0.96300925  0.35426041     0.12000
H1695       H  0.46830792  0.95072763  0.27876687     0.14800
H1696       H  0.42636754  0.92498906  0.30644496     0.13500
H1697       H  0.46890126  0.97840772  0.40685487     0.11200
H1698       H  0.52327596  0.97099647  0.39373816     0.13200
C1699       C  0.66957709  0.06591753  0.50722080     0.19300
C1700       C  0.65057388  0.08289988  0.50332619    -0.18800
C1701       C  0.62791689  0.07562507  0.49355335    -0.11000
C1702       C  0.62368388  0.05105619  0.48740731     0.21600
C1703       C  0.64319773  0.03439426  0.48958966    -0.20400
C1704       C  0.66585585  0.04162519  0.49954515    -0.11200
C1705       C  0.59896867  0.04174277  0.48020804    -0.15400
C1706       C  0.57775109  0.05240764  0.48734874    -0.29200
C1707       C  0.69192272  0.07430309  0.52089063    -0.03500
C1708       C  0.71089578  0.06004098  0.52821745    -0.40000
H1709       H  0.65295401  0.10181997  0.50866389     0.12700
H1710       H  0.61370166  0.08923516  0.49127792     0.12400
H1711       H  0.64057393  0.01543584  0.48455477     0.11800
H1712       H  0.67994647  0.02791764  0.50175769     0.12000
H1713       H  0.59819956  0.02377148  0.47166611     0.14800
H1714       H  0.57801106  0.06949867  0.49751748     0.13500
H1715       H  0.69215419  0.09341106  0.52626557     0.11200
H1716       H  0.71234736  0.04131270  0.52195218     0.13200
C1717       C  0.65806956  0.92957333  0.47436351     0.19300
C1718       C  0.63528738  0.91782774  0.47172163    -0.18800
C1719       C  0.61395245  0.92765320  0.48228951    -0.11000
C1720       C  0.61486607  0.94964806  0.49587200     0.21600
C1721       C  0.63792400  0.96047386  0.49992674    -0.20400
C1722       C  0.65925847  0.95064316  0.48935698    -0.11200
C1723       C  0.59244362  0.96307246  0.50435975    -0.15400
C1724       C  0.56932753  0.95742983  0.49735833    -0.29200
C1725       C  0.67978549  0.91934127  0.46087103    -0.03500
C1726       C  0.70089245  0.93167983  0.45677350    -0.40000
H1727       H  0.63382755  0.90128252  0.46077453     0.12700
H1728       H  0.59690396  0.91807133  0.47919696     0.12400
H1729       H  0.63938586  0.97710155  0.51073430     0.11800
H1730       H  0.67645160  0.95983939  0.49290637     0.12000
H1731       H  0.59539022  0.98012748  0.51426678     0.14800
H1732       H  0.56565187  0.94112092  0.48661936     0.13500
H1733       H  0.67791212  0.90104874  0.45335114     0.11200
H1734       H  0.70326982  0.94981135  0.46444185     0.13200
loop_ 
_geom_bond_atom_site_label_1 
_geom_bond_atom_site_label_2 
_geom_bond_distance 
_geom_bond_site_symmetry_2 
_ccdc_geom_bond_type 
O1            C9   1.268       .  A
O1          Co21   1.962   1_565  S
O2           C10   1.264       .  A
O2          Co22   1.979       .  S
O3           C11   1.269       .  A
O3          Co23   1.986   1_565  S
O4           C12   1.292       .  A
O4          Co24   2.094   1_565  S
O5           C11   1.268       .  A
O5          Co22   1.991       .  S
O6           C12   1.264       .  A
O6          Co21   1.908   1_565  S
O7           C10   1.266   1_545  A
O7          Co24   2.008       .  S
O8            C9   1.284       .  A
O8          Co23   2.047   1_565  S
C9         C1724   1.480       .  S
C10        C1654   1.477       .  S
C11        C1618   1.484       .  S
C12        C1690   1.479       .  S
O13          C26   1.292       .  A
O13         Co21   2.097       .  S
O14          C27   1.274       .  A
O14         Co22   2.010   1_545  S
O15          C28   1.261       .  A
O15         Co23   1.983       .  S
O16          C29   1.270       .  A
O16         Co24   1.973       .  S
O17          C29   1.280       .  A
O17         Co22   2.031   1_545  S
O18          C28   1.263       .  A
O18         Co21   2.005       .  S
O19          C26   1.270       .  A
O19         Co24   1.908       .  S
O20          C27   1.273       .  A
O20         Co23   1.991       .  S
Co21         O25   2.001       .  S
Co22         O25   2.032   1_565  S
Co23         O25   2.029       .  S
Co24         O25   2.014       .  S
C26        C1670   1.472       .  S
C27        C1598   1.488       .  S
C28        C1706   1.479       .  S
C29        C1634   1.484       .  S
O30          C38   1.272       .  A
O30         Co50   2.001   1_455  S
O31          C39   1.294       .  A
O31         Co51   2.104       .  S
O32          C40   1.264       .  A
O32         Co52   1.976       .  S
O33          C41   1.268       .  A
O33         Co53   1.967       .  S
O34          C40   1.263       .  A
O34         Co51   2.002       .  S
O35          C41   1.281       .  A
O35         Co50   2.038   1_455  S
O36          C39   1.270       .  A
O36         Co53   1.909       .  S
O37          C38   1.270       .  A
O37         Co52   1.988       .  S
C38        C1580   1.484       .  S
C39        C1526   1.479       .  S
C40        C1490   1.479       .  S
C41        C1456   1.479       .  S
O42          C55   1.258       .  A
O42         Co50   1.974       .  S
O43          C56   1.271       .  A
O43         Co51   1.973   1_655  S
O44          C57   1.271       .  A
O44         Co52   2.001   1_655  S
O45          C58   1.296       .  A
O45         Co53   2.102   1_655  S
O46          C58   1.265       .  A
O46         Co51   1.902   1_655  S
O47          C57   1.268       .  A
O47         Co50   1.986       .  S
O48          C55   1.268       .  A
O48         Co53   2.029   1_655  S
O49          C56   1.280       .  A
O49         Co52   2.026   1_655  S
Co50         O54   2.029   1_655  S
Co51         O54   2.004       .  S
Co52         O54   2.041       .  S
Co53         O54   2.026       .  S
C55        C1474   1.483       .  S
C56        C1510   1.480       .  S
C57        C1562   1.482       .  S
C58        C1546   1.482       .  S
O59          C67   1.257       .  A
O59         Co79   1.972       .  S
O60          C68   1.267       .  A
O60         Co80   1.964       .  S
O61          C69   1.296       .  A
O61         Co81   2.104   1_556  S
O62          C70   1.270       .  A
O62         Co82   2.003   1_556  S
O63          C69   1.264       .  A
O63         Co80   1.895       .  S
O64          C70   1.267       .  A
O64         Co79   1.987       .  S
O65          C68   1.283       .  A
O65         Co82   2.044   1_556  S
O66          C67   1.270       .  A
O66         Co81   2.034   1_556  S
C67        C1436   1.481       .  S
C68        C1364   1.480       .  S
C69        C1400   1.472       .  S
C70        C1328   1.483       .  S
O71          C84   1.273       .  A
O71         Co79   2.001   1_554  S
O72          C85   1.297       .  A
O72         Co80   2.103   1_554  S
O73          C86   1.266       .  A
O73         Co81   1.962       .  S
O74          C87   1.262       .  A
O74         Co82   1.977       .  S
O75          C87   1.263       .  A
O75         Co80   2.007   1_554  S
O76          C86   1.282       .  A
O76         Co79   2.044   1_554  S
O77          C84   1.270       .  A
O77         Co82   1.990       .  S
O78          C85   1.269       .  A
O78         Co81   1.903       .  S
Co79         O83   2.023       .  S
Co80         O83   1.997       .  S
Co81         O83   2.015   1_554  S
Co82         O83   2.039   1_554  S
C84        C1310   1.483       .  S
C85        C1384   1.482       .  S
C86        C1420   1.478       .  S
C87        C1346   1.480       .  S
C88        C1616   1.489       .  S
C88          C89   1.405       .  A
C88          C93   1.404       .  A
C89          C90   1.401       .  A
C89          H94   1.082       .  S
C90        C1294   1.483       .  S
C90          C91   1.408       .  A
C91          C92   1.410       .  A
C91          H95   1.082       .  S
C92        C1274   1.491       .  S
C92          C93   1.406       .  A
C93          H96   1.085       .  S
C97        C1238   1.480       .  S
C97          N98   1.358       .  A
C97         N102   1.364       .  A
N98          C99   1.358       .  A
C99        C1292   1.479       .  S
C99         N100   1.357       .  A
N100        C101   1.359       .  A
C101       C1256   1.478       .  S
C101        N102   1.363       .  A
C103       C1564   1.486       .  S
C103        C104   1.409       .  A
C103        C108   1.400       .  A
C104        C105   1.411       .  A
C104        H109   1.083       .  S
C105       C1220   1.498       .  S
C105        C106   1.414       .  A
C106        C107   1.406       .  A
C106        H110   1.082       .  S
C107       C1258   1.490       .  S
C107        C108   1.403       .  A
C108        H111   1.084       .  S
C112       C1202   1.487       .  S
C112        C113   1.400       .  A
C112        C117   1.402       .  A
C113        C114   1.406       .  A
C113        H118   1.085       .  S
C114       C1366   1.498       .  S
C114        C115   1.415       .  A
C115        C116   1.416       .  A
C115        H119   1.076       .  S
C116       C1240   1.496       .  S
C116        C117   1.406       .  A
C117        H120   1.082       .  S
C121       C1168   1.485       .  S
C121        N122   1.363       .  A
C121        N126   1.366       .  A
N122        C123   1.360       .  A
C123       C1150   1.485       .  S
C123        N124   1.356       .  A
N124        C125   1.359       .  A
C125       C1184   1.484       .  S
C125        N126   1.364       .  A
C127       C1438   1.498       .  S
C127        C128   1.412       .  A
C127        C132   1.413       .  A
C128        C129   1.411       .  A
C128        H133   1.082       .  S
C129       C1132   1.498       .  S
C129        C130   1.405       .  A
C130        C131   1.407       .  A
C130        H134   1.083       .  S
C131       C1186   1.497       .  S
C131        C132   1.407       .  A
C132        H135   1.082       .  S
C136       C1112   1.504       .  S
C136        C137   1.414       .  A
C136        C141   1.411       .  A
C137        C138   1.411       .  A
C137        H142   1.081       .  S
C138       C1600   1.497       .  S
C138        C139   1.408       .  A
C139        C140   1.402       .  A
C139        H143   1.082       .  S
C140       C1166   1.491       .  S
C140        C141   1.408       .  A
C141        H144   1.083       .  S
C145       C1094   1.498       .  S
C145        C146   1.413       .  A
C145        C150   1.407       .  A
C146        C147   1.410       .  A
C146        H151   1.080       .  S
C147       C1148   1.490       .  S
C147        C148   1.407       .  A
C148        C149   1.409       .  A
C148        H152   1.081       .  S
C149       C1528   1.497       .  S
C149        C150   1.405       .  A
C150        H153   1.084       .  S
O154        C162   1.268   1_565  A
O154       Co174   1.964       .  S
O155        C163   1.263   1_545  A
O155       Co175   1.978       .  S
O156        C164   1.272       .  A
O156       Co176   2.003       .  S
O157        C165   1.291       .  A
O157       Co177   2.098       .  S
O158        C164   1.268   1_554  A
O158       Co175   1.982       .  S
O159        C165   1.271   1_556  A
O159       Co174   1.920       .  S
O160        C163   1.263       .  A
O160       Co177   1.999       .  S
O161        C162   1.283       .  A
O161       Co176   2.042       .  S
C162       C1276   1.478       .  S
C163       C1022   1.475       .  S
C164       C1076   1.480       .  S
C165        C986   1.481       .  S
O166        C179   1.295       .  A
O166       Co174   2.093   1_554  S
O167        C180   1.271       .  A
O167       Co175   2.000       .  S
O168        C181   1.260   1_545  A
O168       Co176   1.975       .  S
O169        C182   1.273   1_565  A
O169       Co177   1.970       .  S
O170        C182   1.279       .  A
O170       Co175   2.025       .  S
O171        C181   1.269       .  A
O171       Co174   2.030       .  S
O172        C179   1.266       .  A
O172       Co177   1.904       .  S
O173        C180   1.271       .  A
O173       Co176   1.996   1_554  S
Co174       O178   2.021   1_566  S
Co175       O178   2.028       .  S
Co176       O178   2.029   1_556  S
Co177       O178   2.006   1_565  S
C179       C1006   1.480       .  S
C180       C1058   1.488       .  S
C181       C1114   1.486       .  S
C182       C1042   1.475       .  S
C183        C968   1.476       .  S
C183        N184   1.357       .  A
C183        N188   1.361       .  A
N184        C185   1.359       .  A
C185        C950   1.475       .  S
C185        N186   1.357       .  A
N186        C187   1.359       .  A
C187        C932   1.475       .  S
C187        N188   1.358       .  A
C189       C1402   1.484       .  S
C189        C190   1.405       .  A
C189        C194   1.404       .  A
C190        C191   1.411       .  A
C190        H195   1.081       .  S
C191       C1004   1.492       .  S
C191        C192   1.407       .  A
C192        C193   1.407       .  A
C192        H196   1.080       .  S
C193        C970   1.490       .  S
C193        C194   1.399       .  A
C194        H197   1.084       .  S
C198        C916   1.483       .  S
C198        C199   1.401       .  A
C198        C203   1.409       .  A
C199        C200   1.402       .  A
C199        H204   1.083       .  S
C200        C952   1.483       .  S
C200        C201   1.399       .  A
C201        C202   1.409       .  A
C201        H205   1.083       .  S
C202       C1652   1.490       .  S
C202        C203   1.410       .  A
C203        H206   1.083       .  S
C207        C896   1.498       .  S
C207        C208   1.414       .  A
C207        C212   1.412       .  A
C208        C209   1.411       .  A
C208        H213   1.082       .  S
C209       C1492   1.491       .  S
C209        C210   1.401       .  A
C210        C211   1.402       .  A
C210        H214   1.084       .  S
C211        C934   1.486       .  S
C211        C212   1.403       .  A
C212        H215   1.081       .  S
C216        C860   1.475       .  S
C216        N217   1.353       .  A
C216        N221   1.358       .  A
N217        C218   1.354       .  A
C218        C878   1.473       .  S
C218        N219   1.361       .  A
N219        C220   1.364       .  A
C220        C842   1.477       .  S
C220        N221   1.361       .  A
C222       C1544   1.493       .  S
C222        C223   1.413       .  A
C222        C227   1.403       .  A
C223        C224   1.412       .  A
C223        H228   1.082       .  S
C224        C826   1.494       .  S
C224        C225   1.410       .  A
C225        C226   1.400       .  A
C225        H229   1.083       .  S
C226        C880   1.487       .  S
C226        C227   1.403       .  A
C227        H230   1.083       .  S
C231        C806   1.494       .  S
C231        C232   1.406       .  A
C231        C236   1.418       .  A
C232        C233   1.402       .  A
C232        H237   1.083       .  S
C233        C862   1.486       .  S
C233        C234   1.395       .  A
C234        C235   1.403       .  A
C234        H238   1.085       .  S
C235       C1348   1.490       .  S
C235        C236   1.416       .  A
C236        H239   1.080       .  S
C240       C1672   1.490       .  S
C240        C241   1.406       .  A
C240        C245   1.410       .  A
C241        C242   1.406       .  A
C241        H246   1.082       .  S
C242       C1024   1.489       .  S
C242        C243   1.401       .  A
C243        C244   1.408       .  A
C243        H247   1.080       .  S
C244        C844   1.494       .  S
C244        C245   1.406       .  A
C245        H248   1.082       .  S
O249        C257   1.273       .  A
O249       Co269   1.998       .  S
O250        C258   1.297   1_554  A
O250       Co270   2.105       .  S
O251        C259   1.263   1_655  A
O251       Co271   1.979       .  S
O252        C260   1.268   1_455  A
O252       Co272   1.974       .  S
O253        C259   1.262       .  A
O253       Co270   2.003       .  S
O254        C260   1.278       .  A
O254       Co269   2.031       .  S
O255        C258   1.268       .  A
O255       Co272   1.895       .  S
O256        C257   1.270   1_554  A
O256       Co271   1.990       .  S
C257       C1204   1.485       .  S
C258        C788   1.473   1_556  S
C259        C752   1.480       .  S
C260        C898   1.485   1_655  S
O261        C274   1.265   1_655  A
O261       Co269   1.976       .  S
O262        C275   1.269   1_455  A
O262       Co270   1.969       .  S
O263        C276   1.269       .  A
O263       Co271   2.003       .  S
O264        C277   1.297   1_556  A
O264       Co272   2.119       .  S
O265        C277   1.263       .  A
O265       Co270   1.900       .  S
O266        C276   1.268   1_556  A
O266       Co269   1.993       .  S
O267        C274   1.267       .  A
O267       Co272   2.010       .  S
O268        C275   1.282       .  A
O268       Co271   2.037       .  S
Co269       O273   2.041       .  S
Co270       O273   2.005   1_454  S
Co271       O273   2.051   1_554  S
Co272       O273   2.019   1_455  S
C274        C734   1.480       .  S
C275        C772   1.483       .  S
C276        C808   1.485       .  S
C277       C1130   1.485       .  S
C278        C698   1.488       .  S
C278        C279   1.409       .  A
C278        C283   1.402       .  A
C279        C280   1.409       .  A
C279        H284   1.082       .  S
C280       C1636   1.492       .  S
C280        C281   1.412       .  A
C281        C282   1.405       .  A
C281        H285   1.082       .  S
C282        C716   1.482       .  S
C282        C283   1.398       .  A
C283        H286   1.085       .  S
C287        C718   1.482       .  S
C287        N288   1.362       .  A
C287        N292   1.359       .  A
N288        C289   1.364       .  A
C289        C682   1.477       .  S
C289        N290   1.358       .  A
N290        C291   1.357       .  A
C291        C662   1.474       .  S
C291        N292   1.355       .  A
C293       C1454   1.493       .  S
C293        C294   1.404       .  A
C293        C298   1.407       .  A
C294        C295   1.407       .  A
C294        H299   1.084       .  S
C295        C770   1.493       .  S
C295        C296   1.410       .  A
C296        C297   1.406       .  A
C296        H300   1.081       .  S
C297        C680   1.487       .  S
C297        C298   1.407       .  A
C298        H301   1.081       .  S
C302       C1312   1.489       .  S
C302        C303   1.407       .  A
C302        C307   1.406       .  A
C303        C304   1.406       .  A
C303        H308   1.081       .  S
C304        C664   1.483       .  S
C304        C305   1.404       .  A
C305        C306   1.405       .  A
C305        H309   1.084       .  S
C306       C1060   1.486       .  S
C306        C307   1.405       .  A
C307        H310   1.084       .  S
C311        C644   1.474       .  S
C311        N312   1.361       .  A
C311        N316   1.357       .  A
N312        C313   1.361       .  A
C313        C626   1.473       .  S
C313        N314   1.355       .  A
N314        C315   1.356       .  A
C315        C608   1.474       .  S
C315        N316   1.355       .  A
C317       C1508   1.485       .  S
C317        C318   1.401       .  A
C317        C322   1.411       .  A
C318        C319   1.403       .  A
C318        H323   1.081       .  S
C319        C646   1.492       .  S
C319        C320   1.400       .  A
C320        C321   1.406       .  A
C320        H324   1.085       .  S
C321        C736   1.490       .  S
C321        C322   1.413       .  A
C322        H325   1.080       .  S
C326       C1078   1.484       .  S
C326        C327   1.402       .  A
C326        C331   1.409       .  A
C327        C328   1.404       .  A
C327        H332   1.083       .  S
C328        C628   1.483       .  S
C328        C329   1.401       .  A
C329        C330   1.407       .  A
C329        H333   1.083       .  S
C330       C1330   1.490       .  S
C330        C331   1.408       .  A
C331        H334   1.083       .  S
C335        C590   1.484       .  S
C335        C336   1.399       .  A
C335        C340   1.412       .  A
C336        C337   1.399       .  A
C336        H341   1.084       .  S
C337        C610   1.480       .  S
C337        C338   1.398       .  A
C338        C339   1.409       .  A
C338        H342   1.083       .  S
C339       C1708   1.491       .  S
C339        C340   1.412       .  A
C340        H343   1.083       .  S
C344        C572   1.480       .  S
C344        N345   1.359       .  A
C344        N349   1.355       .  A
N345        C346   1.360       .  A
C346        C536   1.482       .  S
C346        N347   1.366       .  A
N347        C348   1.365       .  A
C348        C554   1.478       .  S
C348        N349   1.357       .  A
C350       C1726   1.491       .  S
C350        C351   1.405       .  A
C350        C355   1.411       .  A
C351        C352   1.403       .  A
C351        H356   1.084       .  S
C352        C518   1.485       .  S
C352        C353   1.404       .  A
C353        C354   1.407       .  A
C353        H357   1.081       .  S
C354        C574   1.489       .  S
C354        C355   1.407       .  A
C355        H358   1.082       .  S
C359        C754   1.493       .  S
C359        C360   1.401       .  A
C359        C364   1.412       .  A
C360        C361   1.402       .  A
C360        H365   1.083       .  S
C361        C556   1.493       .  S
C361        C362   1.406       .  A
C362        C363   1.416       .  A
C362        H366   1.082       .  S
C363       C1472   1.501       .  S
C363        C364   1.414       .  A
C364        H367   1.082       .  S
C368        C988   1.501       .  S
C368        C369   1.411       .  A
C368        C373   1.416       .  A
C369        C370   1.409       .  A
C369        H374   1.081       .  S
C370       C1382   1.493       .  S
C370        C371   1.402       .  A
C371        C372   1.404       .  A
C371        H375   1.084       .  S
C372        C538   1.494       .  S
C372        C373   1.409       .  A
C373        H376   1.081       .  S
C377        C482   1.474       .  S
C377        N378   1.363       .  A
C377        N382   1.357       .  A
N378        C379   1.364       .  A
C379        C466   1.476       .  S
C379        N380   1.356       .  A
N380        C381   1.355       .  A
C381        C500   1.472       .  S
C381        N382   1.354       .  A
C383       C1688   1.482       .  S
C383        C384   1.403       .  A
C383        C388   1.412       .  A
C384        C385   1.397       .  A
C384        H389   1.084       .  S
C385        C502   1.479       .  S
C385        C386   1.400       .  A
C386        C387   1.403       .  A
C386        H390   1.084       .  S
C387       C1040   1.487       .  S
C387        C388   1.412       .  A
C388        H391   1.081       .  S
C392        C446   1.497       .  S
C392        C393   1.406       .  A
C392        C397   1.413       .  A
C393        C394   1.402       .  A
C393        H398   1.084       .  S
C394       C1582   1.487       .  S
C394        C395   1.403       .  A
C395        C396   1.408       .  A
C395        H399   1.081       .  S
C396        C484   1.490       .  S
C396        C397   1.410       .  A
C397        H400   1.081       .  S
C401       C1418   1.494       .  S
C401        C402   1.414       .  A
C401        C406   1.406       .  A
C402        C403   1.412       .  A
C402        H407   1.077       .  S
C403        C464   1.490       .  S
C403        C404   1.402       .  A
C404        C405   1.401       .  A
C404        H408   1.084       .  S
C405        C790   1.484       .  S
C405        C406   1.400       .  A
C406        H409   1.084       .  S
O410        C418   1.257       .  A
O410       Co430   1.972   1_455  S
O411        C419   1.267   1_455  A
O411       Co431   1.963       .  S
O412        C420   1.299       .  A
O412       Co432   2.109       .  S
O413        C421   1.271   1_545  A
O413       Co433   1.993       .  S
O414        C420   1.264   1_545  A
O414       Co431   1.893       .  S
O415        C421   1.269       .  A
O415       Co430   1.986       .  S
O416        C419   1.283       .  A
O416       Co433   2.049       .  S
O417        C418   1.268       .  A
O417       Co432   2.033       .  S
C418       C1222   1.482       .  S
C419       C1096   1.480   1_655  S
C420        C914   1.478       .  S
C421        C592   1.478   1_565  S
O422        C435   1.270       .  A
O422       Co430   1.992       .  S
O423        C436   1.296       .  A
O423       Co431   2.100   1_565  S
O424        C437   1.263   1_455  A
O424       Co432   1.958       .  S
O425        C438   1.258       .  A
O425       Co433   1.976   1_455  S
O426        C438   1.266       .  A
O426       Co431   2.016       .  S
O427        C437   1.283       .  A
O427       Co430   2.054       .  S
O428        C435   1.269       .  A
O428       Co433   1.990   1_565  S
O429        C436   1.267       .  A
O429       Co432   1.901       .  S
Co430       O434   2.029       .  S
Co431       O434   1.998   1_445  S
Co432       O434   2.014   1_455  S
Co433       O434   2.032   1_545  S
C435        C520   1.484       .  S
C436        C700   1.477       .  S
C437        C448   1.478   1_655  S
C438        C824   1.479       .  S
C439        C447   1.494       .  S
C439        C440   1.403       .  A
C439        C444   1.410       .  A
C440        C441   1.401       .  A
C440        H449   1.083   1_455  S
C441        C442   1.411       .  A
C441        H450   1.081       .  S
C442        C445   1.497       .  S
C442        C443   1.404       .  A
C443        C444   1.401       .  A
C443        H451   1.083       .  S
C444        H452   1.081       .  S
C445        H453   1.083       .  S
C445        C446   1.351       .  D
C446        H454   1.084       .  S
C447        H455   1.087   1_455  S
C447        C448   1.346       .  D
C448        H456   1.085       .  S
C457        C465   1.488       .  S
C457        C458   1.402       .  A
C457        C462   1.409       .  A
C458        C459   1.399       .  A
C458        H467   1.083       .  S
C459        C460   1.409       .  A
C459        H468   1.082       .  S
C460        C463   1.487       .  S
C460        C461   1.402       .  A
C461        C462   1.399       .  A
C461        H469   1.083       .  S
C462        H470   1.082       .  S
C463        H471   1.084       .  S
C463        C464   1.347       .  D
C464        H472   1.086       .  S
C465        H473   1.087       .  S
C465        C466   1.344       .  D
C466        H474   1.085       .  S
C475        C483   1.485       .  S
C475        C476   1.403       .  A
C475        C480   1.408       .  A
C476        C477   1.397       .  A
C476        H485   1.083       .  S
C477        C478   1.405       .  A
C477        H486   1.083       .  S
C478        C481   1.483       .  S
C478        C479   1.403       .  A
C479        C480   1.403       .  A
C479        H487   1.083       .  S
C480        H488   1.082       .  S
C481        H489   1.086       .  S
C481        C482   1.343       .  D
C482        H490   1.087       .  S
C483        H491   1.086       .  S
C483        C484   1.349       .  D
C484        H492   1.086       .  S
C493        C501   1.475       .  S
C493        C494   1.400       .  A
C493        C498   1.406       .  A
C494        C495   1.394       .  A
C494        H503   1.083       .  S
C495        C496   1.405       .  A
C495        H504   1.083       .  S
C496        C499   1.478       .  S
C496        C497   1.403       .  A
C497        C498   1.400       .  A
C497        H505   1.083       .  S
C498        H506   1.083       .  S
C499        H507   1.087       .  S
C499        C500   1.344       .  D
C500        H508   1.086       .  S
C501        H509   1.087       .  S
C501        C502   1.343       .  D
C502        H510   1.087       .  S
C511        C519   1.487       .  S
C511        C512   1.405       .  A
C511        C516   1.408       .  A
C512        C513   1.393       .  A
C512        H521   1.084       .  S
C513        C514   1.403       .  A
C513        H522   1.083       .  S
C514        C517   1.485       .  S
C514        C515   1.406       .  A
C515        C516   1.404       .  A
C515        H523   1.083       .  S
C516        H524   1.081       .  S
C517        H525   1.086       .  S
C517        C518   1.349       .  D
C518        H526   1.087       .  S
C519        H527   1.087       .  S
C519        C520   1.352       .  D
C520        H528   1.084       .  S
C529        C537   1.490       .  S
C529        C530   1.405       .  A
C529        C534   1.407       .  A
C530        C531   1.401       .  A
C530        H539   1.083       .  S
C531        C532   1.407       .  A
C531        H540   1.082       .  S
C532        C535   1.493       .  S
C532        C533   1.406       .  A
C533        C534   1.404       .  A
C533        H541   1.083       .  S
C534        H542   1.082       .  S
C535        H543   1.087       .  S
C535        C536   1.347       .  D
C536        H544   1.086       .  S
C537        H545   1.087       .  S
C537        C538   1.351       .  D
C538        H546   1.086       .  S
C547        C555   1.489       .  S
C547        C548   1.404       .  A
C547        C552   1.407       .  A
C548        C549   1.399       .  A
C548        H557   1.083       .  S
C549        C550   1.407       .  A
C549        H558   1.082       .  S
C550        C553   1.493       .  S
C550        C551   1.406       .  A
C551        C552   1.404       .  A
C551        H559   1.083       .  S
C552        H560   1.082       .  S
C553        H561   1.087       .  S
C553        C554   1.346       .  D
C554        H562   1.086       .  S
C555        H563   1.086       .  S
C555        C556   1.351       .  D
C556        H564   1.086       .  S
C565        C573   1.488       .  S
C565        C566   1.404       .  A
C565        C570   1.407       .  A
C566        C567   1.398       .  A
C566        H575   1.084       .  S
C567        C568   1.409       .  A
C567        H576   1.081       .  S
C568        C571   1.492       .  S
C568        C569   1.405       .  A
C569        C570   1.401       .  A
C569        H577   1.083       .  S
C570        H578   1.081       .  S
C571        H579   1.087       .  S
C571        C572   1.348       .  D
C572        H580   1.084       .  S
C573        H581   1.086       .  S
C573        C574   1.350       .  D
C574        H582   1.085       .  S
C583        C591   1.482       .  S
C583        C584   1.401       .  A
C583        C588   1.408       .  A
C584        C585   1.395       .  A
C584        H593   1.084       .  S
C585        C586   1.408       .  A
C585        H594   1.082       .  S
C586        C589   1.490       .  S
C586        C587   1.405       .  A
C587        C588   1.403       .  A
C587        H595   1.083   1_545  S
C588        H596   1.082   1_545  S
C589        H597   1.086       .  S
C589        C590   1.344       .  D
C590        H598   1.086       .  S
C591        H599   1.088       .  S
C591        C592   1.348       .  D
C592        H600   1.085   1_545  S
C601        C609   1.478       .  S
C601        C602   1.401       .  A
C601        C606   1.404       .  A
C602        C603   1.396       .  A
C602        H611   1.084       .  S
C603        C604   1.409       .  A
C603        H612   1.079       .  S
C604        C607   1.486       .  S
C604        C605   1.405       .  A
C605        C606   1.397       .  A
C605        H613   1.083       .  S
C606        H614   1.082       .  S
C607        H615   1.087       .  S
C607        C608   1.347       .  D
C608        H616   1.083       .  S
C609        H617   1.087       .  S
C609        C610   1.345       .  D
C610        H618   1.086       .  S
C619        C627   1.481       .  S
C619        C620   1.401       .  A
C619        C624   1.406       .  A
C620        C621   1.396       .  A
C620        H629   1.083       .  S
C621        C622   1.408       .  A
C621        H630   1.081       .  S
C622        C625   1.486       .  S
C622        C623   1.404       .  A
C623        C624   1.399       .  A
C623        H631   1.083       .  S
C624        H632   1.083       .  S
C625        H633   1.087       .  S
C625        C626   1.344       .  D
C626        H634   1.085       .  S
C627        H635   1.086       .  S
C627        C628   1.344       .  D
C628        H636   1.086       .  S
C637        C645   1.489       .  S
C637        C638   1.404       .  A
C637        C642   1.410       .  A
C638        C639   1.395       .  A
C638        H647   1.084       .  S
C639        C640   1.406       .  A
C639        H648   1.082       .  S
C640        C643   1.485       .  S
C640        C641   1.402       .  A
C641        C642   1.400       .  A
C641        H649   1.083       .  S
C642        H650   1.079       .  S
C643        H651   1.087       .  S
C643        C644   1.345       .  D
C644        H652   1.085       .  S
C645        H653   1.083       .  S
C645        C646   1.349       .  D
C646        H654   1.083       .  S
C655        C663   1.480       .  S
C655        C656   1.402       .  A
C655        C660   1.406       .  A
C656        C657   1.397       .  A
C656        H665   1.083       .  S
C657        C658   1.405       .  A
C657        H666   1.083       .  S
C658        C661   1.480       .  S
C658        C659   1.403       .  A
C659        C660   1.399       .  A
C659        H667   1.083       .  S
C660        H668   1.083       .  S
C661        H669   1.087       .  S
C661        C662   1.344       .  D
C662        H670   1.087       .  S
C663        H671   1.087       .  S
C663        C664   1.346       .  D
C664        H672   1.086       .  S
C673        C681   1.487       .  S
C673        C674   1.404       .  A
C673        C678   1.406       .  A
C674        C675   1.401       .  A
C674        H683   1.083       .  S
C675        C676   1.407       .  A
C675        H684   1.082       .  S
C676        C679   1.486       .  S
C676        C677   1.403       .  A
C677        C678   1.399       .  A
C677        H685   1.083       .  S
C678        H686   1.083       .  S
C679        H687   1.087       .  S
C679        C680   1.348       .  D
C680        H688   1.086       .  S
C681        H689   1.087       .  S
C681        C682   1.344       .  D
C682        H690   1.086       .  S
C691        C699   1.488       .  S
C691        C692   1.403       .  A
C691        C696   1.410   1_545  A
C692        C693   1.393       .  A
C692        H701   1.084       .  S
C693        C694   1.406       .  A
C693        H702   1.082       .  S
C694        C697   1.489       .  S
C694        C695   1.405       .  A
C695        C696   1.403   1_545  A
C695        H703   1.083   1_545  S
C696        H704   1.080       .  S
C697        H705   1.085       .  S
C697        C698   1.348       .  D
C698        H706   1.086       .  S
C699        H707   1.088       .  S
C699        C700   1.347   1_545  D
C700        H708   1.083       .  S
C709        C717   1.485       .  S
C709        C710   1.404       .  A
C709        C714   1.406       .  A
C710        C711   1.398       .  A
C710        H719   1.083       .  S
C711        C712   1.406       .  A
C711        H720   1.083       .  S
C712        C715   1.486       .  S
C712        C713   1.404       .  A
C713        C714   1.402       .  A
C713        H721   1.083       .  S
C714        H722   1.083       .  S
C715        H723   1.087       .  S
C715        C716   1.345       .  D
C716        H724   1.087       .  S
C717        H725   1.087       .  S
C717        C718   1.348       .  D
C718        H726   1.086       .  S
C727        C735   1.491       .  S
C727        C728   1.404       .  A
C727        C732   1.407       .  A
C728        C729   1.404       .  A
C728        H737   1.083       .  S
C729        C730   1.412       .  A
C729        H738   1.081   1_655  S
C730        C733   1.492       .  S
C730        C731   1.403       .  A
C731        C732   1.397       .  A
C731        H739   1.084       .  S
C732        H740   1.082       .  S
C733        H741   1.087       .  S
C733        C734   1.347   1_655  D
C734        H742   1.084       .  S
C735        H743   1.084       .  S
C735        C736   1.349       .  D
C736        H744   1.086       .  S
C745        C753   1.497       .  S
C745        C746   1.405       .  A
C745        C750   1.410       .  A
C746        C747   1.404       .  A
C746        H755   1.083       .  S
C747        C748   1.411       .  A
C747        H756   1.081   1_655  S
C748        C751   1.494       .  S
C748        C749   1.402       .  A
C749        C750   1.399       .  A
C749        H757   1.084       .  S
C750        H758   1.081       .  S
C751        H759   1.087       .  S
C751        C752   1.347   1_655  D
C752        H760   1.085       .  S
C753        H761   1.085       .  S
C753        C754   1.349       .  D
C754        H762   1.085       .  S
C763        C771   1.495   1_455  S
C763        C764   1.405   1_455  A
C763        C768   1.410       .  A
C764        C765   1.398   1_655  A
C764        H773   1.084       .  S
C765        C766   1.407       .  A
C765        H774   1.081       .  S
C766        C769   1.494       .  S
C766        C767   1.405       .  A
C767        C768   1.404       .  A
C767        H775   1.083       .  S
C768        H776   1.080       .  S
C769        H777   1.084       .  S
C769        C770   1.352       .  D
C770        H778   1.085       .  S
C771        H779   1.087       .  S
C771        C772   1.351       .  D
C772        H780   1.083   1_655  S
C781        C789   1.483       .  S
C781        C782   1.404       .  A
C781        C786   1.405       .  A
C782        C783   1.400       .  A
C782        H791   1.083       .  S
C783        C784   1.405       .  A
C783        H792   1.082       .  S
C784        C787   1.481       .  S
C784        C785   1.404       .  A
C785        C786   1.396       .  A
C785        H793   1.084       .  S
C786        H794   1.082       .  S
C787        H795   1.088       .  S
C787        C788   1.346       .  D
C788        H796   1.085   1_554  S
C789        H797   1.086       .  S
C789        C790   1.347       .  D
C790        H798   1.086       .  S
C799        C807   1.490       .  S
C799        C800   1.405       .  A
C799        C804   1.407       .  A
C800        C801   1.404       .  A
C800        H809   1.082       .  S
C801        C802   1.413       .  A
C801        H810   1.082       .  S
C802        C805   1.496       .  S
C802        C803   1.402       .  A
C803        C804   1.401       .  A
C803        H811   1.083       .  S
C804        H812   1.084   1_554  S
C805        H813   1.085       .  S
C805        C806   1.347       .  D
C806        H814   1.086       .  S
C807        H815   1.088       .  S
C807        C808   1.354       .  D
C808        H816   1.085       .  S
C817        C825   1.496       .  S
C817        C818   1.407       .  A
C817        C822   1.408       .  A
C818        C819   1.400   1_655  A
C818        H827   1.083       .  S
C819        C820   1.407       .  A
C819        H828   1.080       .  S
C820        C823   1.495       .  S
C820        C821   1.406       .  A
C821        C822   1.402   1_455  A
C821        H829   1.083       .  S
C822        H830   1.080       .  S
C823        H831   1.087       .  S
C823        C824   1.350       .  D
C824        H832   1.083       .  S
C825        H833   1.086       .  S
C825        C826   1.353       .  D
C826        H834   1.083       .  S
C835        C843   1.485       .  S
C835        C836   1.403       .  A
C835        C840   1.407       .  A
C836        C837   1.396       .  A
C836        H845   1.084       .  S
C837        C838   1.406       .  A
C837        H846   1.082       .  S
C838        C841   1.487       .  S
C838        C839   1.405       .  A
C839        C840   1.402       .  A
C839        H847   1.083       .  S
C840        H848   1.082       .  S
C841        H849   1.087       .  S
C841        C842   1.346       .  D
C842        H850   1.086       .  S
C843        H851   1.083       .  S
C843        C844   1.350       .  D
C844        H852   1.085       .  S
C853        C861   1.487       .  S
C853        C854   1.401       .  A
C853        C858   1.408       .  A
C854        C855   1.396       .  A
C854        H863   1.084       .  S
C855        C856   1.411       .  A
C855        H864   1.078       .  S
C856        C859   1.493       .  S
C856        C857   1.405       .  A
C857        C858   1.400       .  A
C857        H865   1.083       .  S
C858        H866   1.081       .  S
C859        H867   1.087       .  S
C859        C860   1.346       .  D
C860        H868   1.081       .  S
C861        H869   1.086       .  S
C861        C862   1.346       .  D
C862        H870   1.085       .  S
C871        C879   1.485       .  S
C871        C872   1.401       .  A
C871        C876   1.408       .  A
C872        C873   1.394       .  A
C872        H881   1.084       .  S
C873        C874   1.409       .  A
C873        H882   1.081       .  S
C874        C877   1.490       .  S
C874        C875   1.404       .  A
C875        C876   1.402       .  A
C875        H883   1.083       .  S
C876        H884   1.082       .  S
C877        H885   1.087       .  S
C877        C878   1.345       .  D
C878        H886   1.084       .  S
C879        H887   1.086       .  S
C879        C880   1.347       .  D
C880        H888   1.085       .  S
C889        C897   1.497       .  S
C889        C890   1.407       .  A
C889        C894   1.408       .  A
C890        C891   1.401       .  A
C890        H899   1.084   1_455  S
C891        C892   1.408       .  A
C891        H900   1.080       .  S
C892        C895   1.498       .  S
C892        C893   1.407       .  A
C893        C894   1.403       .  A
C893        H901   1.083       .  S
C894        H902   1.080       .  S
C895        H903   1.084       .  S
C895        C896   1.355       .  D
C896        H904   1.083       .  S
C897        H905   1.087   1_455  S
C897        C898   1.353       .  D
C898        H906   1.083       .  S
C907        C915   1.489       .  S
C907        C908   1.404       .  A
C907        C912   1.405       .  A
C908        C909   1.404       .  A
C908        H917   1.083       .  S
C909        C910   1.411       .  A
C909        H918   1.080       .  S
C910        C913   1.493       .  S
C910        C911   1.404       .  A
C911        C912   1.396       .  A
C911        H919   1.084       .  S
C912        H920   1.082       .  S
C913        H921   1.088       .  S
C913        C914   1.347       .  D
C914        H922   1.083   1_565  S
C915        H923   1.086       .  S
C915        C916   1.346       .  D
C916        H924   1.086       .  S
C925        C933   1.483       .  S
C925        C926   1.403       .  A
C925        C930   1.406       .  A
C926        C927   1.398       .  A
C926        H935   1.083       .  S
C927        C928   1.405       .  A
C927        H936   1.083       .  S
C928        C931   1.481       .  S
C928        C929   1.403       .  A
C929        C930   1.400       .  A
C929        H937   1.083       .  S
C930        H938   1.083       .  S
C931        H939   1.087       .  S
C931        C932   1.344       .  D
C932        H940   1.086       .  S
C933        H941   1.086       .  S
C933        C934   1.348       .  D
C934        H942   1.086       .  S
C943        C951   1.483       .  S
C943        C944   1.402       .  A
C943        C948   1.407       .  A
C944        C945   1.397       .  A
C944        H953   1.084       .  S
C945        C946   1.408       .  A
C945        H954   1.081       .  S
C946        C949   1.486       .  S
C946        C947   1.403       .  A
C947        C948   1.398       .  A
C947        H955   1.083       .  S
C948        H956   1.082       .  S
C949        H957   1.087       .  S
C949        C950   1.346       .  D
C950        H958   1.084       .  S
C951        H959   1.086       .  S
C951        C952   1.346       .  D
C952        H960   1.085       .  S
C961        C969   1.483       .  S
C961        C962   1.402       .  A
C961        C966   1.407       .  A
C962        C963   1.398       .  A
C962        H971   1.083       .  S
C963        C964   1.408       .  A
C963        H972   1.081       .  S
C964        C967   1.485       .  S
C964        C965   1.403       .  A
C965        C966   1.397       .  A
C965        H973   1.083       .  S
C966        H974   1.082       .  S
C967        H975   1.087       .  S
C967        C968   1.345       .  D
C968        H976   1.085       .  S
C969        H977   1.082       .  S
C969        C970   1.347       .  D
C970        H978   1.086       .  S
C979        C987   1.503       .  S
C979        C980   1.407       .  A
C979        C984   1.411       .  A
C980        C981   1.403       .  A
C980        H989   1.083       .  S
C981        C982   1.409       .  A
C981        H990   1.081       .  S
C982        C985   1.499       .  S
C982        C983   1.405       .  A
C983        C984   1.404       .  A
C983        H991   1.084   1_554  S
C984        H992   1.079       .  S
C985        H993   1.087   1_554  S
C985        C986   1.348       .  D
C986        H994   1.084       .  S
C987        H995   1.084       .  S
C987        C988   1.354       .  D
C988        H996   1.083       .  S
C997       C1005   1.490       .  S
C997        C998   1.403       .  A
C997       C1002   1.409   1_556  A
C998        C999   1.395       .  A
C998       H1007   1.084       .  S
C999       C1000   1.407       .  A
C999       H1008   1.081       .  S
C1000      C1003   1.492       .  S
C1000      C1001   1.405   1_556  A
C1001      C1002   1.404       .  A
C1001      H1009   1.083       .  S
C1002      H1010   1.080       .  S
C1003      H1011   1.084       .  S
C1003      C1004   1.349       .  D
C1004      H1012   1.085       .  S
C1005      H1013   1.087       .  S
C1005      C1006   1.348   1_556  D
C1006      H1014   1.084       .  S
C1015      C1023   1.492       .  S
C1015      C1016   1.405       .  A
C1015      C1020   1.409       .  A
C1016      C1017   1.400       .  A
C1016      H1025   1.083   1_545  S
C1017      C1018   1.409       .  A
C1017      H1026   1.080   1_545  S
C1018      C1021   1.490       .  S
C1018      C1019   1.403       .  A
C1019      C1020   1.397       .  A
C1019      H1027   1.084       .  S
C1020      H1028   1.080       .  S
C1021      H1029   1.087       .  S
C1021      C1022   1.346   1_545  D
C1022      H1030   1.083       .  S
C1023      H1031   1.085       .  S
C1023      C1024   1.348       .  D
C1024      H1032   1.083       .  S
C1033      C1041   1.490       .  S
C1033      C1034   1.402       .  A
C1033      C1038   1.412   1_565  A
C1034      C1035   1.397       .  A
C1034      H1043   1.083       .  S
C1035      C1036   1.408       .  A
C1035      H1044   1.082       .  S
C1036      C1039   1.488       .  S
C1036      C1037   1.401       .  A
C1037      C1038   1.400   1_565  A
C1037      H1045   1.083   1_565  S
C1038      H1046   1.081       .  S
C1039      H1047   1.084       .  S
C1039      C1040   1.346       .  D
C1040      H1048   1.086       .  S
C1041      H1049   1.087       .  S
C1041      C1042   1.344   1_565  D
C1042      H1050   1.085       .  S
C1051      C1059   1.488       .  S
C1051      C1052   1.406       .  A
C1051      C1056   1.403       .  A
C1052      C1053   1.406       .  A
C1052      H1061   1.083       .  S
C1053      C1054   1.408       .  A
C1053      H1062   1.081       .  S
C1054      C1057   1.492       .  S
C1054      C1055   1.407       .  A
C1055      C1056   1.396       .  A
C1055      H1063   1.084       .  S
C1056      H1064   1.083       .  S
C1057      H1065   1.087       .  S
C1057      C1058   1.354       .  D
C1058      H1066   1.084       .  S
C1059      H1067   1.086       .  S
C1059      C1060   1.349       .  D
C1060      H1068   1.087       .  S
C1069      C1077   1.487       .  S
C1069      C1070   1.404       .  A
C1069      C1074   1.406       .  A
C1070      C1071   1.402       .  A
C1070      H1079   1.083       .  S
C1071      C1072   1.408       .  A
C1071      H1080   1.082       .  S
C1072      C1075   1.486       .  S
C1072      C1073   1.404       .  A
C1073      C1074   1.397       .  A
C1073      H1081   1.084       .  S
C1074      H1082   1.082       .  S
C1075      H1083   1.087       .  S
C1075      C1076   1.349       .  D
C1076      H1084   1.085       .  S
C1077      H1085   1.087       .  S
C1077      C1078   1.346       .  D
C1078      H1086   1.087       .  S
C1087      C1095   1.494   1_455  S
C1087      C1088   1.404   1_455  A
C1087      C1092   1.409       .  A
C1088      C1089   1.402   1_655  A
C1088      H1097   1.083       .  S
C1089      C1090   1.410       .  A
C1089      H1098   1.081       .  S
C1090      C1093   1.496       .  S
C1090      C1091   1.404       .  A
C1091      C1092   1.401       .  A
C1091      H1099   1.083       .  S
C1092      H1100   1.081       .  S
C1093      H1101   1.083       .  S
C1093      C1094   1.351       .  D
C1094      H1102   1.085       .  S
C1095      H1103   1.087       .  S
C1095      C1096   1.349   1_655  D
C1096      H1104   1.085       .  S
C1105      C1113   1.504   1_545  S
C1105      C1106   1.411       .  A
C1105      C1110   1.406   1_545  A
C1106      C1107   1.406       .  A
C1106      H1115   1.079       .  S
C1107      C1108   1.411       .  A
C1107      H1116   1.080       .  S
C1108      C1111   1.505       .  S
C1108      C1109   1.407       .  A
C1109      C1110   1.403   1_545  A
C1109      H1117   1.083       .  S
C1110      H1118   1.083       .  S
C1111      H1119   1.084       .  S
C1111      C1112   1.356       .  D
C1112      H1120   1.083       .  S
C1113      H1121   1.087       .  S
C1113      C1114   1.353       .  D
C1114      H1122   1.082       .  S
C1123      C1131   1.500       .  S
C1123      C1124   1.407       .  A
C1123      C1128   1.409       .  A
C1124      C1125   1.406       .  A
C1124      H1133   1.083   1_556  S
C1125      C1126   1.410       .  A
C1125      H1134   1.081   1_556  S
C1126      C1129   1.496       .  S
C1126      C1127   1.404       .  A
C1127      C1128   1.400       .  A
C1127      H1135   1.083       .  S
C1128      H1136   1.081       .  S
C1129      H1137   1.087       .  S
C1129      C1130   1.349   1_556  D
C1130      H1138   1.085       .  S
C1131      H1139   1.085       .  S
C1131      C1132   1.352       .  D
C1132      H1140   1.085       .  S
C1141      C1149   1.493       .  S
C1141      C1142   1.405       .  A
C1141      C1146   1.408       .  A
C1142      C1143   1.402       .  A
C1142      H1151   1.083       .  S
C1143      C1144   1.407       .  A
C1143      H1152   1.083       .  S
C1144      C1147   1.492       .  S
C1144      C1145   1.405       .  A
C1145      C1146   1.403       .  A
C1145      H1153   1.083       .  S
C1146      H1154   1.082       .  S
C1147      H1155   1.087       .  S
C1147      C1148   1.349       .  D
C1148      H1156   1.086       .  S
C1149      H1157   1.087       .  S
C1149      C1150   1.348       .  D
C1150      H1158   1.086       .  S
C1159      C1167   1.493       .  S
C1159      C1160   1.406       .  A
C1159      C1164   1.407       .  A
C1160      C1161   1.405       .  A
C1160      H1169   1.083       .  S
C1161      C1162   1.408       .  A
C1161      H1170   1.083       .  S
C1162      C1165   1.492       .  S
C1162      C1163   1.404       .  A
C1163      C1164   1.401       .  A
C1163      H1171   1.083       .  S
C1164      H1172   1.083       .  S
C1165      H1173   1.087       .  S
C1165      C1166   1.347       .  D
C1166      H1174   1.086       .  S
C1167      H1175   1.086       .  S
C1167      C1168   1.349       .  D
C1168      H1176   1.086       .  S
C1177      C1185   1.494       .  S
C1177      C1178   1.403       .  A
C1177      C1182   1.409       .  A
C1178      C1179   1.398       .  A
C1178      H1187   1.084       .  S
C1179      C1180   1.409       .  A
C1179      H1188   1.080       .  S
C1180      C1183   1.500       .  S
C1180      C1181   1.408       .  A
C1181      C1182   1.407       .  A
C1181      H1189   1.083       .  S
C1182      H1190   1.082       .  S
C1183      H1191   1.087       .  S
C1183      C1184   1.350       .  D
C1184      H1192   1.084       .  S
C1185      H1193   1.086       .  S
C1185      C1186   1.351       .  D
C1186      H1194   1.085       .  S
C1195      C1203   1.482       .  S
C1195      C1196   1.402       .  A
C1195      C1200   1.406       .  A
C1196      C1197   1.391       .  A
C1196      H1205   1.084       .  S
C1197      C1198   1.404       .  A
C1197      H1206   1.082       .  S
C1198      C1201   1.487       .  S
C1198      C1199   1.408       .  A
C1199      C1200   1.406       .  A
C1199      H1207   1.083       .  S
C1200      H1208   1.082       .  S
C1201      H1209   1.085       .  S
C1201      C1202   1.350       .  D
C1202      H1210   1.086       .  S
C1203      H1211   1.087       .  S
C1203      C1204   1.350       .  D
C1204      H1212   1.085       .  S
C1213      C1221   1.500       .  S
C1213      C1214   1.408   1_455  A
C1213      C1218   1.408   1_455  A
C1214      C1215   1.405       .  A
C1214      H1223   1.083       .  S
C1215      C1216   1.409       .  A
C1215      H1224   1.081       .  S
C1216      C1219   1.498       .  S
C1216      C1217   1.406       .  A
C1217      C1218   1.402       .  A
C1217      H1225   1.083       .  S
C1218      H1226   1.081   1_655  S
C1219      H1227   1.086       .  S
C1219      C1220   1.352       .  D
C1220      H1228   1.085       .  S
C1221      H1229   1.086       .  S
C1221      C1222   1.351       .  D
C1222      H1230   1.084       .  S
C1231      C1239   1.495       .  S
C1231      C1232   1.404       .  A
C1231      C1236   1.411       .  A
C1232      C1233   1.400       .  A
C1232      H1241   1.083       .  S
C1233      C1234   1.409       .  A
C1233      H1242   1.082       .  S
C1234      C1237   1.491       .  S
C1234      C1235   1.403       .  A
C1235      C1236   1.401       .  A
C1235      H1243   1.083       .  S
C1236      H1244   1.081       .  S
C1237      H1245   1.087       .  S
C1237      C1238   1.346       .  D
C1238      H1246   1.085       .  S
C1239      H1247   1.083       .  S
C1239      C1240   1.349       .  D
C1240      H1248   1.084       .  S
C1249      C1257   1.487       .  S
C1249      C1250   1.404       .  A
C1249      C1254   1.407       .  A
C1250      C1251   1.399       .  A
C1250      H1259   1.083       .  S
C1251      C1252   1.405       .  A
C1251      H1260   1.083       .  S
C1252      C1255   1.487       .  S
C1252      C1253   1.405       .  A
C1253      C1254   1.403       .  A
C1253      H1261   1.083       .  S
C1254      H1262   1.082       .  S
C1255      H1263   1.087       .  S
C1255      C1256   1.345       .  D
C1256      H1264   1.086       .  S
C1257      H1265   1.087       .  S
C1257      C1258   1.349       .  D
C1258      H1266   1.086       .  S
C1267      C1275   1.494   1_565  S
C1267      C1268   1.404   1_565  A
C1267      C1272   1.410       .  A
C1268      C1269   1.399   1_545  A
C1268      H1277   1.084       .  S
C1269      C1270   1.409       .  A
C1269      H1278   1.080   1_565  S
C1270      C1273   1.495       .  S
C1270      C1271   1.404       .  A
C1271      C1272   1.401       .  A
C1271      H1279   1.083       .  S
C1272      H1280   1.079       .  S
C1273      H1281   1.085       .  S
C1273      C1274   1.350       .  D
C1274      H1282   1.084       .  S
C1275      H1283   1.087       .  S
C1275      C1276   1.348       .  D
C1276      H1284   1.083   1_545  S
C1285      C1293   1.485       .  S
C1285      C1286   1.403       .  A
C1285      C1290   1.407       .  A
C1286      C1287   1.399       .  A
C1286      H1295   1.083       .  S
C1287      C1288   1.406       .  A
C1287      H1296   1.083       .  S
C1288      C1291   1.485       .  S
C1288      C1289   1.404       .  A
C1289      C1290   1.400       .  A
C1289      H1297   1.083       .  S
C1290      H1298   1.083       .  S
C1291      H1299   1.087       .  S
C1291      C1292   1.347       .  D
C1292      H1300   1.086       .  S
C1293      H1301   1.087       .  S
C1293      C1294   1.344       .  D
C1294      H1302   1.087       .  S
C1303      C1311   1.489       .  S
C1303      C1304   1.407       .  A
C1303      C1308   1.406       .  A
C1304      C1305   1.404       .  A
C1304      H1313   1.083       .  S
C1305      C1306   1.406       .  A
C1305      H1314   1.082       .  S
C1306      C1309   1.484       .  S
C1306      C1307   1.403       .  A
C1307      C1308   1.394       .  A
C1307      H1315   1.084       .  S
C1308      H1316   1.081       .  S
C1309      H1317   1.087       .  S
C1309      C1310   1.350       .  D
C1310      H1318   1.085       .  S
C1311      H1319   1.085       .  S
C1311      C1312   1.350       .  D
C1312      H1320   1.086       .  S
C1321      C1329   1.492       .  S
C1321      C1322   1.407       .  A
C1321      C1326   1.406       .  A
C1322      C1323   1.402       .  A
C1322      H1331   1.083       .  S
C1323      C1324   1.406       .  A
C1323      H1332   1.081       .  S
C1324      C1327   1.490       .  S
C1324      C1325   1.406       .  A
C1325      C1326   1.398       .  A
C1325      H1333   1.084       .  S
C1326      H1334   1.081       .  S
C1327      H1335   1.087       .  S
C1327      C1328   1.352       .  D
C1328      H1336   1.084       .  S
C1329      H1337   1.086       .  S
C1329      C1330   1.352       .  D
C1330      H1338   1.084       .  S
C1339      C1347   1.494       .  S
C1339      C1340   1.403       .  A
C1339      C1344   1.409       .  A
C1340      C1341   1.405       .  A
C1340      H1349   1.083       .  S
C1341      C1342   1.412       .  A
C1341      H1350   1.081       .  S
C1342      C1345   1.492       .  S
C1342      C1343   1.402       .  A
C1343      C1344   1.398       .  A
C1343      H1351   1.084       .  S
C1344      H1352   1.083       .  S
C1345      H1353   1.087       .  S
C1345      C1346   1.347       .  D
C1346      H1354   1.085       .  S
C1347      H1355   1.085       .  S
C1347      C1348   1.347       .  D
C1348      H1356   1.087       .  S
C1357      C1365   1.498       .  S
C1357      C1358   1.405       .  A
C1357      C1362   1.410       .  A
C1358      C1359   1.403       .  A
C1358      H1367   1.083       .  S
C1359      C1360   1.410       .  A
C1359      H1368   1.081       .  S
C1360      C1363   1.492       .  S
C1360      C1361   1.403       .  A
C1361      C1362   1.400       .  A
C1361      H1369   1.084       .  S
C1362      H1370   1.081       .  S
C1363      H1371   1.087       .  S
C1363      C1364   1.348       .  D
C1364      H1372   1.085       .  S
C1365      H1373   1.083       .  S
C1365      C1366   1.351       .  D
C1366      H1374   1.084       .  S
C1375      C1383   1.491       .  S
C1375      C1376   1.404       .  A
C1375      C1380   1.409       .  A
C1376      C1377   1.396       .  A
C1376      H1385   1.084       .  S
C1377      C1378   1.407       .  A
C1377      H1386   1.081       .  S
C1378      C1381   1.493       .  S
C1378      C1379   1.406       .  A
C1379      C1380   1.404       .  A
C1379      H1387   1.083       .  S
C1380      H1388   1.080       .  S
C1381      H1389   1.084       .  S
C1381      C1382   1.350       .  D
C1382      H1390   1.085       .  S
C1383      H1391   1.087       .  S
C1383      C1384   1.350       .  D
C1384      H1392   1.084       .  S
C1393      C1401   1.483       .  S
C1393      C1394   1.405       .  A
C1393      C1398   1.406       .  A
C1394      C1395   1.400       .  A
C1394      H1403   1.083       .  S
C1395      C1396   1.405       .  A
C1395      H1404   1.082       .  S
C1396      C1399   1.482       .  S
C1396      C1397   1.404       .  A
C1397      C1398   1.397       .  A
C1397      H1405   1.084       .  S
C1398      H1406   1.082       .  S
C1399      H1407   1.088       .  S
C1399      C1400   1.345       .  D
C1400      H1408   1.085       .  S
C1401      H1409   1.087       .  S
C1401      C1402   1.348       .  D
C1402      H1410   1.086       .  S
C1411      C1419   1.492       .  S
C1411      C1412   1.404       .  A
C1411      C1416   1.410       .  A
C1412      C1413   1.400       .  A
C1412      H1421   1.083       .  S
C1413      C1414   1.408       .  A
C1413      H1422   1.081       .  S
C1414      C1417   1.491       .  S
C1414      C1415   1.403       .  A
C1415      C1416   1.400       .  A
C1415      H1423   1.084       .  S
C1416      H1424   1.080       .  S
C1417      H1425   1.083       .  S
C1417      C1418   1.350       .  D
C1418      H1426   1.085       .  S
C1419      H1427   1.087       .  S
C1419      C1420   1.347       .  D
C1420      H1428   1.084       .  S
C1429      C1437   1.499       .  S
C1429      C1430   1.406       .  A
C1429      C1434   1.409       .  A
C1430      C1431   1.403       .  A
C1430      H1439   1.083       .  S
C1431      C1432   1.410       .  A
C1431      H1440   1.080       .  S
C1432      C1435   1.501       .  S
C1432      C1433   1.407       .  A
C1433      C1434   1.403       .  A
C1433      H1441   1.083       .  S
C1434      H1442   1.081       .  S
C1435      H1443   1.087       .  S
C1435      C1436   1.350       .  D
C1436      H1444   1.083       .  S
C1437      H1445   1.086       .  S
C1437      C1438   1.353       .  D
C1438      H1446   1.085       .  S
C1447      C1455   1.494       .  S
C1447      C1448   1.406       .  A
C1447      C1452   1.409       .  A
C1448      C1449   1.401       .  A
C1448      H1457   1.083       .  S
C1449      C1450   1.407       .  A
C1449      H1458   1.081       .  S
C1450      C1453   1.491       .  S
C1450      C1451   1.404       .  A
C1451      C1452   1.399       .  A
C1451      H1459   1.084       .  S
C1452      H1460   1.079       .  S
C1453      H1461   1.085       .  S
C1453      C1454   1.350       .  D
C1454      H1462   1.085       .  S
C1455      H1463   1.087       .  S
C1455      C1456   1.350       .  D
C1456      H1464   1.083       .  S
C1465      C1473   1.503       .  S
C1465      C1466   1.408       .  A
C1465      C1470   1.409       .  A
C1466      C1467   1.406       .  A
C1466      H1475   1.082       .  S
C1467      C1468   1.409       .  A
C1467      H1476   1.080       .  S
C1468      C1471   1.502       .  S
C1468      C1469   1.406       .  A
C1469      C1470   1.402       .  A
C1469      H1477   1.083       .  S
C1470      H1478   1.079       .  S
C1471      H1479   1.085       .  S
C1471      C1472   1.355       .  D
C1472      H1480   1.083       .  S
C1473      H1481   1.087       .  S
C1473      C1474   1.353       .  D
C1474      H1482   1.082       .  S
C1483      C1491   1.496       .  S
C1483      C1484   1.404       .  A
C1483      C1488   1.410       .  A
C1484      C1485   1.403       .  A
C1484      H1493   1.083       .  S
C1485      C1486   1.411       .  A
C1485      H1494   1.081       .  S
C1486      C1489   1.493       .  S
C1486      C1487   1.403       .  A
C1487      C1488   1.399       .  A
C1487      H1495   1.084       .  S
C1488      H1496   1.081       .  S
C1489      H1497   1.087       .  S
C1489      C1490   1.347       .  D
C1490      H1498   1.084       .  S
C1491      H1499   1.085       .  S
C1491      C1492   1.349       .  D
C1492      H1500   1.085       .  S
C1501      C1509   1.491       .  S
C1501      C1502   1.407       .  A
C1501      C1506   1.407       .  A
C1502      C1503   1.399       .  A
C1502      H1511   1.080       .  S
C1503      C1504   1.410       .  A
C1503      H1512   1.082       .  S
C1504      C1507   1.489       .  S
C1504      C1505   1.401       .  A
C1505      C1506   1.399       .  A
C1505      H1513   1.083       .  S
C1506      H1514   1.083       .  S
C1507      H1515   1.086       .  S
C1507      C1508   1.345       .  D
C1508      H1516   1.086       .  S
C1509      H1517   1.087       .  S
C1509      C1510   1.352       .  D
C1510      H1518   1.083       .  S
C1519      C1527   1.498       .  S
C1519      C1520   1.406       .  A
C1519      C1524   1.410       .  A
C1520      C1521   1.402       .  A
C1520      H1529   1.083       .  S
C1521      C1522   1.408       .  A
C1521      H1530   1.082       .  S
C1522      C1525   1.494       .  S
C1522      C1523   1.405       .  A
C1523      C1524   1.402       .  A
C1523      H1531   1.084       .  S
C1524      H1532   1.080       .  S
C1525      H1533   1.087       .  S
C1525      C1526   1.348       .  D
C1526      H1534   1.085       .  S
C1527      H1535   1.084       .  S
C1527      C1528   1.352       .  D
C1528      H1536   1.084       .  S
C1537      C1545   1.494       .  S
C1537      C1538   1.403       .  A
C1537      C1542   1.411       .  A
C1538      C1539   1.397       .  A
C1538      H1547   1.084       .  S
C1539      C1540   1.408       .  A
C1539      H1548   1.081       .  S
C1540      C1543   1.497       .  S
C1540      C1541   1.406       .  A
C1541      C1542   1.405       .  A
C1541      H1549   1.083       .  S
C1542      H1550   1.080       .  S
C1543      H1551   1.085       .  S
C1543      C1544   1.349       .  D
C1544      H1552   1.085       .  S
C1545      H1553   1.087       .  S
C1545      C1546   1.349       .  D
C1546      H1554   1.084       .  S
C1555      C1563   1.491       .  S
C1555      C1556   1.405       .  A
C1555      C1560   1.407       .  A
C1556      C1557   1.404       .  A
C1556      H1565   1.083       .  S
C1557      C1558   1.407       .  A
C1557      H1566   1.082       .  S
C1558      C1561   1.486       .  S
C1558      C1559   1.403       .  A
C1559      C1560   1.397       .  A
C1559      H1567   1.084       .  S
C1560      H1568   1.082       .  S
C1561      H1569   1.088       .  S
C1561      C1562   1.349       .  D
C1562      H1570   1.085       .  S
C1563      H1571   1.086       .  S
C1563      C1564   1.346       .  D
C1564      H1572   1.086       .  S
C1573      C1581   1.488       .  S
C1573      C1574   1.406       .  A
C1573      C1578   1.404       .  A
C1574      C1575   1.405       .  A
C1574      H1583   1.083       .  S
C1575      C1576   1.408       .  A
C1575      H1584   1.081       .  S
C1576      C1579   1.487       .  S
C1576      C1577   1.404       .  A
C1577      C1578   1.393       .  A
C1577      H1585   1.084       .  S
C1578      H1586   1.082       .  S
C1579      H1587   1.087       .  S
C1579      C1580   1.351       .  D
C1580      H1588   1.084       .  S
C1581      H1589   1.086       .  S
C1581      C1582   1.349       .  D
C1582      H1590   1.086       .  S
C1591      C1599   1.496       .  S
C1591      C1592   1.408       .  A
C1591      C1596   1.406       .  A
C1592      C1593   1.405       .  A
C1592      H1601   1.083       .  S
C1593      C1594   1.407       .  A
C1593      H1602   1.081       .  S
C1594      C1597   1.495       .  S
C1594      C1595   1.407       .  A
C1595      C1596   1.399       .  A
C1595      H1603   1.083       .  S
C1596      H1604   1.081       .  S
C1597      H1605   1.087       .  S
C1597      C1598   1.355       .  D
C1598      H1606   1.084       .  S
C1599      H1607   1.085       .  S
C1599      C1600   1.354       .  D
C1600      H1608   1.085       .  S
C1609      C1617   1.482       .  S
C1609      C1610   1.403       .  A
C1609      C1614   1.405       .  A
C1610      C1611   1.391       .  A
C1610      H1619   1.084       .  S
C1611      C1612   1.405       .  A
C1611      H1620   1.081       .  S
C1612      C1615   1.490       .  S
C1612      C1613   1.409       .  A
C1613      C1614   1.405       .  A
C1613      H1621   1.083       .  S
C1614      H1622   1.082       .  S
C1615      H1623   1.084       .  S
C1615      C1616   1.351       .  D
C1616      H1624   1.085       .  S
C1617      H1625   1.087       .  S
C1617      C1618   1.351       .  D
C1618      H1626   1.085       .  S
C1627      C1635   1.497       .  S
C1627      C1628   1.406       .  A
C1627      C1632   1.409       .  A
C1628      C1629   1.402       .  A
C1628      H1637   1.083       .  S
C1629      C1630   1.408       .  A
C1629      H1638   1.080       .  S
C1630      C1633   1.495       .  S
C1630      C1631   1.406       .  A
C1631      C1632   1.400       .  A
C1631      H1639   1.084       .  S
C1632      H1640   1.080       .  S
C1633      H1641   1.087       .  S
C1633      C1634   1.353       .  D
C1634      H1642   1.083       .  S
C1635      H1643   1.085       .  S
C1635      C1636   1.352       .  D
C1636      H1644   1.083       .  S
C1645      C1653   1.486       .  S
C1645      C1646   1.409       .  A
C1645      C1650   1.401       .  A
C1646      C1647   1.402       .  A
C1646      H1655   1.082       .  S
C1647      C1648   1.409       .  A
C1647      H1656   1.080       .  S
C1648      C1651   1.492       .  S
C1648      C1649   1.406       .  A
C1649      C1650   1.397       .  A
C1649      H1657   1.083       .  S
C1650      H1658   1.083       .  S
C1651      H1659   1.086       .  S
C1651      C1652   1.352       .  D
C1652      H1660   1.083       .  S
C1653      H1661   1.087       .  S
C1653      C1654   1.345       .  D
C1654      H1662   1.086       .  S
C1663      C1671   1.496       .  S
C1663      C1664   1.407       .  A
C1663      C1668   1.411       .  A
C1664      C1665   1.401       .  A
C1664      H1673   1.083       .  S
C1665      C1666   1.405       .  A
C1665      H1674   1.083       .  S
C1666      C1669   1.487       .  S
C1666      C1667   1.402       .  A
C1667      C1668   1.399       .  A
C1667      H1675   1.084       .  S
C1668      H1676   1.079       .  S
C1669      H1677   1.088       .  S
C1669      C1670   1.345       .  D
C1670      H1678   1.086       .  S
C1671      H1679   1.085       .  S
C1671      C1672   1.351       .  D
C1672      H1680   1.082       .  S
C1681      C1689   1.489       .  S
C1681      C1682   1.405       .  A
C1681      C1686   1.409       .  A
C1682      C1683   1.395       .  A
C1682      H1691   1.084       .  S
C1683      C1684   1.405       .  A
C1683      H1692   1.083       .  S
C1684      C1687   1.486       .  S
C1684      C1685   1.403       .  A
C1685      C1686   1.403       .  A
C1685      H1693   1.083       .  S
C1686      H1694   1.080       .  S
C1687      H1695   1.086       .  S
C1687      C1688   1.345       .  D
C1688      H1696   1.087       .  S
C1689      H1697   1.087       .  S
C1689      C1690   1.349       .  D
C1690      H1698   1.083       .  S
C1699      C1707   1.493       .  S
C1699      C1700   1.407       .  A
C1699      C1704   1.408       .  A
C1700      C1701   1.399       .  A
C1700      H1709   1.083       .  S
C1701      C1702   1.405       .  A
C1701      H1710   1.081       .  S
C1702      C1705   1.490       .  S
C1702      C1703   1.406       .  A
C1703      C1704   1.402       .  A
C1703      H1711   1.083       .  S
C1704      H1712   1.080       .  S
C1705      H1713   1.087       .  S
C1705      C1706   1.351       .  D
C1706      H1714   1.084       .  S
C1707      H1715   1.086       .  S
C1707      C1708   1.353       .  D
C1708      H1716   1.083       .  S
C1717      C1725   1.496       .  S
C1717      C1718   1.405       .  A
C1717      C1722   1.409       .  A
C1718      C1719   1.401       .  A
C1718      H1727   1.084       .  S
C1719      C1720   1.410       .  A
C1719      H1728   1.079       .  S
C1720      C1723   1.497       .  S
C1720      C1721   1.405       .  A
C1721      C1722   1.401       .  A
C1721      H1729   1.083       .  S
C1722      H1730   1.080       .  S
C1723      H1731   1.087       .  S
C1723      C1724   1.350       .  D
C1724      H1732   1.082       .  S
C1725      H1733   1.086       .  S
C1725      C1726   1.350       .  D
C1726      H1734   1.083       .  S
