geometry optimzed in LAMMPS
_audit_creation_date              2020-11-30 
_audit_creation_method            'lammps2cif' 
_symmetry_space_group_name_H-M    'P1' 
_symmetry_Int_Tables_number       1 
_symmetry_cell_setting            triclinic 
loop_ 
_symmetry_equiv_pos_as_xyz 
  x,y,z 
_cell_length_a                    49.91229746 
_cell_length_b                    51.091510098923024 
_cell_length_c                    50.23390862383056 
_cell_angle_alpha                 89.85339962050192 
_cell_angle_beta                  90.30275726577624 
_cell_angle_gamma                 90.15085052364266 
loop_ 
_atom_site_label 
_atom_site_type_symbol 
_atom_site_fract_x 
_atom_site_fract_y 
_atom_site_fract_z 
_atom_site_charge 
O1          O  0.55538073  0.97075680  0.49844191    -0.79900
O2          O  0.44755171  0.99714386  0.52869122    -0.79900
O3          O  0.51740173  0.96922560  0.54563726    -0.79900
O4          O  0.50232239  0.95505103  0.47002971    -0.79900
O5          O  0.48983146  0.99894585  0.56208902    -0.80000
O6          O  0.53131561  0.97968116  0.45014720    -0.79900
O7          O  0.45968155  0.96205243  0.50600581    -0.79900
O8          O  0.57014135  0.98463363  0.53738713    -0.79900
C9          C  0.57363506  0.97088281  0.51675539     1.09800
C10         C  0.44342349  0.97374606  0.52132396     1.09700
C11         C  0.50332891  0.97782816  0.56469687     1.09800
C12         C  0.51670966  0.95948980  0.44994466     1.09700
O13         O  0.51920992  0.03200198  0.46184521    -0.79900
O14         O  0.50756173  0.04701172  0.53558683    -0.80000
O15         O  0.55767162  0.02690104  0.50766531    -0.79900
O16         O  0.44670950  0.00919944  0.47942141    -0.79900
O17         O  0.46344512  0.04316460  0.50093868    -0.79900
O18         O  0.57078729  0.01210763  0.46873980    -0.79900
O19         O  0.48843989  0.00517658  0.44513998    -0.79900
O20         O  0.53464505  0.02068149  0.55580019    -0.79900
Co21       Co  0.53590436  0.00305074  0.48187306     1.51500
Co22       Co  0.47884626  0.02105704  0.52998772     1.51700
Co23       Co  0.53605199  0.99632255  0.52463402     1.51600
Co24       Co  0.47624386  0.98328696  0.47692688     1.51500
O25         O  0.50174075  0.00095287  0.50343339    -1.41800
C26         C  0.50372847  0.02522644  0.44292023     1.09700
C27         C  0.52142080  0.04169053  0.55590778     1.09800
C28         C  0.57566645  0.02545021  0.48943382     1.09800
C29         C  0.44491233  0.03269913  0.48719442     1.09700
O30         O  0.96655548  0.54243980  0.50675177    -0.79900
O31         O  0.98613862  0.43576020  0.47334309    -0.79900
O32         O  0.95865755  0.50574548  0.45968489    -0.79900
O33         O  0.95111379  0.49075083  0.53625699    -0.79900
O34         O  0.98629065  0.47760112  0.44055256    -0.80000
O35         O  0.97904928  0.51851907  0.55362664    -0.79900
O36         O  0.95313709  0.44908376  0.49936394    -0.79900
O37         O  0.97735958  0.55685767  0.46688110    -0.79900
C38         C  0.96543456  0.56049412  0.48878683     1.09800
C39         C  0.96258400  0.43322871  0.48235569     1.09700
C40         C  0.96500760  0.49154372  0.43997514     1.09800
C41         C  0.95808866  0.50475105  0.55581193     1.09700
O42         O  0.03076179  0.50442044  0.53722815    -0.79900
O43         O  0.03854028  0.49308573  0.46272104    -0.80000
O44         O  0.02311335  0.54223666  0.49157675    -0.79900
O45         O  0.00310502  0.43430387  0.52142032    -0.79900
O46         O  0.03617663  0.45017395  0.49714586    -0.79900
O47         O  0.01259809  0.55599942  0.53158980    -0.79900
O48         O  0.00364892  0.47520439  0.55583932    -0.79900
O49         O  0.01074325  0.52019810  0.44444251    -0.79900
Co50       Co  0.00021228  0.52209745  0.51987773     1.51500
Co51       Co  0.01146527  0.46586350  0.47031689     1.51700
Co52       Co  0.98912466  0.52267814  0.47791816     1.51600
Co53       Co  0.97806172  0.46421132  0.52635849     1.51500
O54         O  0.99435468  0.48882365  0.49855837    -1.41800
C55         C  0.02463476  0.48960646  0.55663750     1.09700
C56         C  0.03229555  0.50740297  0.44320909     1.09800
C57         C  0.02452538  0.55997068  0.50970347     1.09800
C58         C  0.02675131  0.43279571  0.51256898     1.09700
O59         O  0.46501267  0.49837168  0.02391443    -0.79900
O60         O  0.54054828  0.48677155  0.03190979    -0.79900
O61         O  0.48062916  0.42888123  0.99579694    -0.79900
O62         O  0.50986090  0.53706020  0.01625313    -0.79900
O63         O  0.50552384  0.44365996  0.02893398    -0.80000
O64         O  0.46898729  0.54949298  0.00549535    -0.79900
O65         O  0.55760567  0.51502783  0.00452745    -0.79900
O66         O  0.44553525  0.46963647  0.99706298    -0.79900
C67         C  0.44516550  0.48391756  0.01794258     1.09800
C68         C  0.55975377  0.50164680  0.02557949     1.09700
C69         C  0.49071965  0.42608158  0.01878374     1.09800
C70         C  0.49083680  0.55404976  0.01750983     1.09700
O71         O  0.49479558  0.53729975  0.96034811    -0.79900
O72         O  0.52883632  0.43058954  0.97875030    -0.80000
O73         O  0.46504992  0.48576952  0.94474396    -0.79900
O74         O  0.54240616  0.50059685  0.95271865    -0.79900
O75         O  0.56179512  0.47225423  0.98015307    -0.79900
O76         O  0.44776174  0.51287064  0.97269977    -0.79900
O77         O  0.53500638  0.55157222  0.97132095    -0.79900
O78         O  0.50175132  0.44429749  0.94645632    -0.79900
Co79       Co  0.48185714  0.51634774  0.99356973     1.51500
Co80       Co  0.53217892  0.46004044  0.00462538     1.51700
Co81       Co  0.47509144  0.45904457  0.97143277     1.51600
Co82       Co  0.52390376  0.51737228  0.98276490     1.51500
O83         O  0.50345717  0.48332545  0.98781226    -1.41800
C84         C  0.51268616  0.55558857  0.95989589     1.09700
C85         C  0.51904717  0.42833136  0.95549000     1.09800
C86         C  0.44534867  0.49940750  0.95183788     1.09800
C87         C  0.56245876  0.48672131  0.95939513     1.09700
C88         C  0.58091346  0.93776732  0.77786543     0.80500
N89         N  0.59852523  0.91748085  0.77806029    -0.77800
C90         C  0.60374837  0.90405778  0.75547213     0.82900
N91         N  0.59105669  0.91082713  0.73260082    -0.77800
C92         C  0.57311492  0.93075452  0.73203668     0.83000
N93         N  0.56807444  0.94439037  0.75476749    -0.79500
C94         C  0.74590286  0.72642375  0.77515215     0.80500
N95         N  0.72742621  0.74584644  0.77580946    -0.77800
C96         C  0.72648366  0.76395746  0.75606628     0.82900
N97         N  0.74404212  0.76251666  0.73559553    -0.77800
C98         C  0.76260546  0.74316434  0.73484816     0.83000
N99         N  0.76352658  0.72513560  0.75470698    -0.79500
C100        C  0.91300905  0.72192638  0.56168928     0.80500
N101        N  0.89355800  0.72087965  0.58054649    -0.77800
C102        C  0.88568534  0.74289682  0.59325092     0.82900
N103        N  0.89764253  0.76598521  0.58743749    -0.77800
C104        C  0.91757893  0.76738607  0.56927003     0.83000
N105        N  0.92522727  0.74527257  0.55615513    -0.79500
C106        C  0.77547808  0.57281578  0.94073568     0.80500
N107        N  0.75277757  0.55865832  0.94593645    -0.77800
C108        C  0.72970835  0.56415724  0.93218962     0.82900
N109        N  0.72959730  0.58364251  0.91383000    -0.77800
C110        C  0.75208137  0.59730224  0.90845954     0.83000
N111        N  0.77491412  0.59174088  0.92175996    -0.79500
C112        C  0.27308599  0.21916341  0.75719594     0.80500
N113        N  0.25370080  0.21951670  0.73814535    -0.77800
C114        C  0.23400120  0.23771744  0.73883139     0.82900
N115        N  0.23366486  0.25557898  0.75872704    -0.77800
C116        C  0.25293620  0.25541573  0.77787797     0.83000
N117        N  0.27273305  0.23720798  0.77706771    -0.79500
C118        C  0.27412214  0.42711868  0.92436605     0.80500
N119        N  0.27400870  0.40612068  0.90789885    -0.77800
C120        C  0.25138139  0.39214856  0.90354224     0.82900
N121        N  0.22844856  0.39922136  0.91585506    -0.77800
C122        C  0.22803935  0.41991316  0.93284180     0.83000
N123        N  0.25103368  0.43402078  0.93712698    -0.79500
C124        C  0.43360047  0.05788560  0.76641665     0.80500
N125        N  0.44739594  0.05420882  0.74337190    -0.77800
C126        C  0.44095785  0.06853857  0.72128187     0.82900
N127        N  0.42068735  0.08619254  0.72240742    -0.77800
C128        C  0.40723136  0.09011145  0.74539295     0.83000
N129        N  0.41387564  0.07608023  0.76729434    -0.79500
C130        C  0.06337707  0.22151436  0.58444626     0.80500
N131        N  0.05684266  0.24462875  0.57231362    -0.77800
C132        C  0.07015812  0.26705898  0.57919445     0.82900
N133        N  0.08956950  0.26617398  0.59815109    -0.77800
C134        C  0.09636752  0.24329530  0.60990136     0.83000
N135        N  0.08337914  0.22105240  0.60291199    -0.79500
O136        O  0.47500624  0.00136729  0.94906776    -0.79900
O137        O  0.46874837  0.96817327  0.05427135    -0.79900
O138        O  0.46292259  0.95181317  0.97893409    -0.79900
O139        O  0.46388086  0.03040910  0.02005897    -0.79900
O140        O  0.47690302  0.93065960  0.01472944    -0.80000
O141        O  0.47487485  0.04398116  0.98111384    -0.79900
O142        O  0.48536833  0.00736241  0.06461508    -0.79900
O143        O  0.49256507  0.96360391  0.93520083    -0.79900
C144        C  0.47837459  0.98386606  0.93079749     1.09800
C145        C  0.47107020  0.98718760  0.07041808     1.09700
C146        C  0.46264970  0.93169270  0.99385012     1.09800
C147        C  0.46156254  0.04721402  0.00160509     1.09700
O148        O  0.52670094  0.03847314  0.99601647    -0.79900
O149        O  0.53283235  0.94187420  0.01728361    -0.80000
O150        O  0.53532108  0.98192277  0.96280362    -0.79900
O151        O  0.53756852  0.00685054  0.04040377    -0.79900
O152        O  0.52416061  0.97199817  0.06162549    -0.79900
O153        O  0.52154696  0.01930418  0.94968788    -0.79900
O154        O  0.51107954  0.05278437  0.03506243    -0.79900
O155        O  0.51574726  0.93402035  0.97757883    -0.79900
Co156      Co  0.49833457  0.01417264  0.98028770     1.51500
Co157      Co  0.50044833  0.95486911  0.03514450     1.51700
Co158      Co  0.49824950  0.96884509  0.97239544     1.51600
Co159      Co  0.50100556  0.01705104  0.02830513     1.51500
O160        O  0.49728577  0.98421941  0.00846886    -1.41800
C161        C  0.52468039  0.05656928  0.01377852     1.09700
C162        C  0.53096202  0.92770092  0.99682391     1.09800
C163        C  0.53680471  0.00057789  0.94613874     1.09800
C164        C  0.53871108  0.99208291  0.06056692     1.09700
C165        C  0.26959278  0.73872528  0.75905286     0.80500
N166        N  0.25089096  0.71937696  0.75966967    -0.77800
C167        C  0.23119776  0.71853971  0.74092954     0.82900
N168        N  0.23012130  0.73721129  0.72169177    -0.77800
C169        C  0.24865243  0.75665671  0.72112473     0.83000
N170        N  0.26840206  0.75729249  0.73974258    -0.79500
C171        C  0.43949189  0.72001503  0.91502749     0.80500
N172        N  0.42045121  0.71920079  0.89561038    -0.77800
C173        C  0.40749220  0.74118666  0.88786619     0.82900
N174        N  0.41333585  0.76416745  0.89981230    -0.77800
C175        C  0.43169375  0.76539722  0.91976991     0.83000
N176        N  0.44498126  0.74321877  0.92745722    -0.79500
C177        C  0.22352564  0.92643500  0.57287306     0.80500
N178        N  0.22323178  0.90488573  0.58878528    -0.77800
C179        C  0.24567499  0.89027676  0.59197624     0.82900
N180        N  0.26837045  0.89703396  0.57899885    -0.77800
C181        C  0.26889344  0.91829378  0.56288405     0.83000
N182        N  0.24656289  0.93333258  0.56016348    -0.79500
C183        C  0.06227720  0.56695944  0.76885198     0.80500
N184        N  0.05584080  0.55361437  0.74617222    -0.77800
C185        C  0.07004822  0.55806573  0.72343679     0.82900
N186        N  0.09022514  0.57591491  0.72355567    -0.77800
C187        C  0.09679658  0.58896820  0.74604899     0.83000
N188        N  0.08288782  0.58434784  0.76861705    -0.79500
C189        C  0.75416848  0.26202561  0.21195147     0.80500
N190        N  0.77572321  0.25990985  0.22835390    -0.77800
C191        C  0.77658754  0.24107100  0.24739869     0.82900
N192        N  0.75567698  0.22425890  0.25006453    -0.77800
C193        C  0.73403623  0.22622738  0.23366902     0.83000
N194        N  0.73330867  0.24516436  0.21464092    -0.79500
C195        C  0.93221501  0.26653973  0.41175594     0.80500
N196        N  0.94320659  0.24456468  0.42288560    -0.77800
C197        C  0.93779421  0.22059288  0.41203916     0.82900
N198        N  0.92111449  0.21885094  0.39065193    -0.77800
C199        C  0.91050142  0.24059105  0.37945494     0.83000
N200        N  0.91625487  0.26430803  0.38993117    -0.79500
C201        C  0.77389980  0.42296084  0.05349468     0.80500
N202        N  0.77268360  0.40303000  0.07133665    -0.77800
C203        C  0.74996615  0.39792870  0.08490670     0.82900
N204        N  0.72817090  0.41307129  0.08080980    -0.77800
C205        C  0.72890983  0.43340137  0.06334019     0.83000
N206        N  0.75189533  0.43840274  0.04946394    -0.79500
C207        C  0.57685111  0.06471163  0.22815393     0.80500
N208        N  0.59346147  0.08571028  0.22808468    -0.77800
C209        C  0.59889402  0.09893985  0.25071079     0.82900
N210        N  0.58720293  0.09140832  0.27376410    -0.77800
C211        C  0.56986182  0.07082896  0.27423072     0.83000
N212        N  0.56483100  0.05718758  0.25133199    -0.79500
O213        O  0.96385125  0.53636126  0.99365875    -0.79900
O214        O  0.04127510  0.54232253  0.00536621    -0.79900
O215        O  0.98013905  0.50681551  0.06288095    -0.79900
O216        O  0.00983365  0.52879346  0.95342674    -0.79900
O217        O  0.00548638  0.53931769  0.04813848    -0.80000
O218        O  0.96829811  0.52001289  0.94112412    -0.79900
O219        O  0.05768308  0.51574237  0.97627214    -0.79900
O220        O  0.94517871  0.50848001  0.02196736    -0.79900
C221        C  0.94435733  0.52964022  0.00840572     1.09800
C222        C  0.06052030  0.53579338  0.99063035     1.09700
C223        C  0.98927832  0.52989128  0.06503786     1.09800
C224        C  0.99057986  0.53081412  0.93625159     1.09700
O225        O  0.99366328  0.47487616  0.95257732    -0.79900
O226        O  0.02758796  0.48967534  0.06163736    -0.80000
O227        O  0.96398186  0.45768411  0.00391137    -0.79900
O228        O  0.04160291  0.46489131  0.98983080    -0.79900
O229        O  0.06135570  0.49057749  0.01956814    -0.79900
O230        O  0.94720903  0.48669076  0.97711992    -0.79900
O231        O  0.03440786  0.48442324  0.93855480    -0.79900
O232        O  0.00171031  0.45821465  0.04545065    -0.79900
Co233      Co  0.98114622  0.50723056  0.97452905     1.51500
Co234      Co  0.03199263  0.51522778  0.03193593     1.51700
Co235      Co  0.97474282  0.48316740  0.03171027     1.51600
Co236      Co  0.02347436  0.49526410  0.97321815     1.51500
O237        O  0.00296577  0.49999306  0.00765541    -1.41800
C238        C  0.01191175  0.47353742  0.93451305     1.09700
C239        C  0.01793936  0.46673085  0.06287143     1.09800
C240        C  0.94469141  0.46538493  0.98955794     1.09800
C241        C  0.06175022  0.47055057  0.00433065     1.09700
C242        C  0.22623572  0.07216285  0.42927315     0.80500
N243        N  0.24899827  0.06740189  0.44361980    -0.77800
C244        C  0.27117863  0.08261438  0.43989618     0.82900
N245        N  0.27065678  0.10191149  0.42136710    -0.77800
C246        C  0.24821532  0.10656445  0.40688970     0.83000
N247        N  0.22600400  0.09181877  0.41100888    -0.79500
C248        C  0.25879581  0.23607696  0.27386149     0.80500
N249        N  0.24144293  0.25646112  0.27442226    -0.77800
C250        C  0.24368573  0.27618276  0.25639227     0.82900
N251        N  0.26319820  0.27534173  0.23767087    -0.77800
C252        C  0.28057911  0.25498255  0.23709248     0.83000
N253        N  0.27836451  0.23545766  0.25526726    -0.79500
C254        C  0.08181909  0.43180309  0.23310606     0.80500
N255        N  0.07400767  0.44519616  0.25519680    -0.77800
C256        C  0.08712416  0.44121954  0.27879216     0.82900
N257        N  0.10743032  0.42357629  0.28014814    -0.77800
C258        C  0.11518619  0.41041725  0.25816687     0.83000
N259        N  0.10250207  0.41477744  0.23478956    -0.79500
C260        C  0.42630772  0.21424576  0.06542227     0.80500
N261        N  0.40979002  0.21594070  0.08675750    -0.77800
C262        C  0.40718804  0.23872481  0.10010690     0.82900
N263        N  0.42148254  0.25984079  0.09241491    -0.77800
C264        C  0.43836728  0.25850665  0.07146103     0.83000
N265        N  0.44064740  0.23568444  0.05757991    -0.79500
C266        C  0.79006536  0.25119804  0.76009864     0.80500
N267        N  0.78932048  0.23278176  0.74066895    -0.77800
C268        C  0.77122246  0.21291702  0.74174506     0.82900
N269        N  0.75376711  0.21150223  0.76234428    -0.77800
C270        C  0.75454014  0.22972229  0.78198266     0.83000
N271        N  0.77264598  0.24958807  0.78072133    -0.79500
C272        C  0.92493323  0.43220128  0.72454888     0.80500
N273        N  0.90804807  0.41126675  0.72604077    -0.77800
C274        C  0.90426852  0.39855309  0.74944649     0.82900
N275        N  0.91763414  0.40667718  0.77140261    -0.77800
C276        C  0.93502814  0.42707910  0.77030000     0.83000
N277        N  0.93868822  0.44002406  0.74676979    -0.79500
C278        C  0.58384623  0.21374951  0.93587090     0.80500
N279        N  0.57220156  0.23760760  0.93993091    -0.77800
C280        C  0.58343284  0.25946864  0.92889533     0.82900
N281        N  0.60611352  0.25727762  0.91434546    -0.77800
C282        C  0.61743122  0.23372807  0.90987887     0.83000
N283        N  0.60615360  0.21199807  0.92049953    -0.79500
C284        C  0.73944020  0.06521339  0.57020418     0.80500
N285        N  0.73960407  0.08351329  0.58980879    -0.77800
C286        C  0.76207095  0.08798326  0.60433238     0.82900
N287        N  0.78436541  0.07385492  0.59948979    -0.77800
C288        C  0.78439339  0.05511353  0.58043528     0.83000
N289        N  0.76190229  0.05086246  0.56555460    -0.79500
C290        C  0.73923176  0.76915430  0.27128291     0.80500
N291        N  0.75765054  0.74963514  0.27149868    -0.77800
C292        C  0.75597704  0.72982625  0.25368318     0.82900
N293        N  0.73569375  0.72947827  0.23561351    -0.77800
C294        C  0.71707288  0.74879632  0.23529652     0.83000
N295        N  0.71891389  0.76875124  0.25311143    -0.79500
C296        C  0.73418861  0.92481405  0.43607177     0.80500
N297        N  0.75760042  0.93801711  0.44025985    -0.77800
C298        C  0.77923366  0.93305981  0.42452718     0.82900
N299        N  0.77732136  0.91476499  0.40497069    -0.77800
C300        C  0.75395875  0.90185516  0.40065158     0.83000
N301        N  0.73256283  0.90706119  0.41611301    -0.79500
C302        C  0.91459254  0.56923654  0.23018664     0.80500
N303        N  0.89552050  0.58803706  0.23139284    -0.77800
C304        C  0.88340273  0.59384727  0.25462461     0.82900
N305        N  0.89009154  0.58036062  0.27691518    -0.77800
C306        C  0.90877364  0.56103860  0.27611895     0.83000
N307        N  0.92134466  0.55561542  0.25266994    -0.79500
C308        C  0.57075475  0.76128168  0.05812775     0.80500
N309        N  0.55758064  0.73868222  0.05183790    -0.77800
C310        C  0.56213693  0.71663839  0.06654917     0.82900
N311        N  0.57958099  0.71746778  0.08739706    -0.77800
C312        C  0.59225692  0.74000100  0.09397620     0.83000
N313        N  0.58780953  0.76175626  0.07926332    -0.79500
C314        C  0.24465490  0.72767335  0.27161109     0.80500
N315        N  0.24489435  0.70878181  0.25260158    -0.77800
C316        C  0.26499700  0.70793064  0.23444837     0.82900
N317        N  0.28488565  0.72617265  0.23532277    -0.77800
C318        C  0.28476865  0.74513855  0.25426003     0.83000
N319        N  0.26460837  0.74580057  0.27231475    -0.79500
C320        C  0.44337797  0.90920416  0.28465958     0.80500
N321        N  0.42611100  0.88853286  0.28465657    -0.77800
C322        C  0.41332298  0.88119069  0.26196267     0.82900
N323        N  0.41752015  0.89490111  0.23925406    -0.77800
C324        C  0.43421701  0.91594243  0.23887090     0.83000
N325        N  0.44738590  0.92301908  0.26165540    -0.79500
C326        C  0.07800465  0.76544360  0.42521108     0.80500
N327        N  0.09750150  0.76289029  0.40671561    -0.77800
C328        C  0.10749526  0.73916532  0.40035056     0.82900
N329        N  0.09820418  0.71757528  0.41311046    -0.77800
C330        C  0.07901355  0.71961325  0.43219308     0.83000
N331        N  0.06865403  0.74369180  0.43811573    -0.79500
C332        C  0.23392402  0.56562866  0.05839562     0.80500
N333        N  0.23512236  0.58278370  0.07900083    -0.77800
C334        C  0.25810115  0.58631003  0.09301135     0.82900
N335        N  0.28012560  0.57239742  0.08643523    -0.77800
C336        C  0.27936477  0.55478237  0.06621259     0.83000
N337        N  0.25613896  0.55137478  0.05203918    -0.79500
O338        O  0.98168398  0.93402741  0.50459478    -0.79900
O339        O  0.01091370  0.04277495  0.52904145    -0.79900
O340        O  0.03972182  0.99164414  0.54273746    -0.79900
O341        O  0.96644295  0.00235221  0.53600791    -0.79900
O342        O  0.05815438  0.02021921  0.51676055    -0.80000
O343        O  0.94744801  0.97449717  0.50761944    -0.79900
O344        O  0.96969415  0.05464990  0.51951248    -0.79900
O345        O  0.00596356  0.94834403  0.53841951    -0.79900
C346        C  0.99043724  0.93142411  0.52815292     1.09800
C347        C  0.99177734  0.05957047  0.53095133     1.09700
C348        C  0.05942262  0.00612886  0.53746199     1.09800
C349        C  0.94731904  0.98713246  0.52958090     1.09700
O350        O  0.96647905  0.99336396  0.45599673    -0.79900
O351        O  0.04213309  0.00759014  0.46419968    -0.80000
O352        O  0.02971117  0.93658165  0.48809000    -0.79900
O353        O  0.99481578  0.04375128  0.47349350    -0.79900
O354        O  0.03521088  0.05810750  0.48396668    -0.79900
O355        O  0.00357776  0.95202709  0.45594588    -0.79900
O356        O  0.94868534  0.01858632  0.48555129    -0.79900
O357        O  0.06243289  0.97883813  0.49051654    -0.79900
Co358      Co  0.97656869  0.96537116  0.48135130     1.51500
Co359      Co  0.02440660  0.02362498  0.49494712     1.51700
Co360      Co  0.03274938  0.96549390  0.51476736     1.51600
Co361      Co  0.98271930  0.02179520  0.50633539     1.51500
O362        O  0.00424931  0.98922920  0.49895204    -1.41800
C363        C  0.94669804  0.00656358  0.46373043     1.09700
C364        C  0.06238492  0.99367337  0.46993729     1.09800
C365        C  0.02003378  0.93510363  0.46470170     1.09800
C366        C  0.01285359  0.06183881  0.47242118     1.09700
C367        C  0.04750701  0.87806140  0.43564896     0.20600
C368        C  0.06841875  0.86229348  0.42638467    -0.39300
C369        C  0.06472701  0.83519372  0.42929488     0.19600
C370        C  0.04206836  0.82439401  0.44073054     0.22200
C371        C  0.02088193  0.84018343  0.44959985    -0.39800
C372        C  0.02442798  0.86736857  0.44639613     0.21000
N373        N  0.04772411  0.90428999  0.43832898    -0.33100
C374        C  0.02448293  0.91039867  0.45060637    -0.10600
C375        C  0.00933640  0.88793570  0.45567656    -0.29400
N376        N  0.04387878  0.79802489  0.44166515    -0.46000
C377        C  0.06778347  0.79211389  0.43043310    -0.05300
C378        C  0.08126162  0.81483332  0.42259855    -0.22700
H379        H  0.08665273  0.87053884  0.41830036     0.19100
H380        H  0.00328362  0.83198572  0.45900526     0.17900
H381        H  0.99119564  0.88661531  0.46732609     0.14200
H382        H  0.10059938  0.81623866  0.41303078     0.14100
H383        H  0.06356260  0.91696670  0.43398865     0.32200
H384        H  0.02957572  0.78490445  0.44897053     0.35000
C385        C  0.27423160  0.63068524  0.14581122     0.20600
C386        C  0.29071493  0.64618401  0.16220809    -0.39300
C387        C  0.27741593  0.66112511  0.18147759     0.19600
C388        C  0.24987438  0.66024269  0.18451693     0.22200
C389        C  0.23340988  0.64483463  0.16806889    -0.39800
C390        C  0.24664301  0.63032355  0.14847506     0.21000
N391        N  0.28188522  0.61492897  0.12584394    -0.33100
C392        C  0.25896345  0.60474106  0.11552102    -0.10600
C393        C  0.23657089  0.61396598  0.12905482    -0.29400
N394        N  0.24208456  0.67629892  0.20414759    -0.46000
C395        C  0.26474721  0.68785348  0.21342230    -0.05300
C396        C  0.28721854  0.67889868  0.19977181    -0.22700
H397        H  0.31225570  0.64682731  0.15990294     0.19100
H398        H  0.21183863  0.64445166  0.17014130     0.17900
H399        H  0.21575533  0.60916961  0.12531355     0.14200
H400        H  0.30787808  0.68474235  0.20272910     0.14100
H401        H  0.30144044  0.61149973  0.11947814     0.32200
H402        H  0.22247505  0.67965322  0.21045021     0.35000
C403        C  0.15535751  0.72187571  0.35044161     0.20600
C404        C  0.16915512  0.70562168  0.33263652    -0.39300
C405        C  0.18933006  0.71783037  0.31758699     0.19600
C406        C  0.19548404  0.74412368  0.32035528     0.22200
C407        C  0.18145418  0.76043018  0.33783226    -0.39800
C408        C  0.16112441  0.74830466  0.35261325     0.21000
N409        N  0.13561605  0.71503385  0.36728258    -0.33100
C410        C  0.12864370  0.73735087  0.38004268    -0.10600
C411        C  0.14402948  0.75850503  0.37129849    -0.29400
N412        N  0.21597256  0.75085857  0.30447554    -0.46000
C413        C  0.22278087  0.72880406  0.29120668    -0.05300
C414        C  0.20651509  0.70779511  0.29874170    -0.22700
H415        H  0.16461462  0.68498418  0.33073433     0.19100
H416        H  0.18612082  0.78103107  0.33987868     0.17900
H417        H  0.14304233  0.77860620  0.37797933     0.14200
H418        H  0.20744782  0.68781629  0.29170387     0.14100
H419        H  0.12731633  0.69639900  0.36984462     0.32200
H420        H  0.22472597  0.76937936  0.30267835     0.35000
C421        C  0.33216119  0.79544296  0.27028753     0.20600
C422        C  0.34520285  0.81392493  0.28648891    -0.39300
C423        C  0.36470021  0.82936524  0.27390126     0.19600
C424        C  0.37044719  0.82682855  0.24710620     0.22200
C425        C  0.35776616  0.80799349  0.23100490    -0.39800
C426        C  0.33850713  0.79230642  0.24369527     0.21000
N427        N  0.31231634  0.77905332  0.27732606    -0.33100
C428        C  0.30613455  0.76511703  0.25519282    -0.10600
C429        C  0.32217459  0.77270186  0.23380373    -0.29400
N430        N  0.38861895  0.84480711  0.23958286    -0.46000
C431        C  0.39472667  0.85871629  0.26177719    -0.05300
C432        C  0.38038170  0.84950733  0.28366810    -0.22700
H433        H  0.34024835  0.81635813  0.30728400     0.19100
H434        H  0.36227368  0.80597563  0.21005909     0.17900
H435        H  0.32148870  0.76534307  0.21362421     0.14200
H436        H  0.38070752  0.85710834  0.30375972     0.14100
H437        H  0.30346107  0.77746484  0.29607368     0.32200
H438        H  0.39627488  0.84758720  0.22045638     0.35000
C439        C  0.83479984  0.97352604  0.44382863     0.20600
C440        C  0.84916657  0.99160152  0.45935301    -0.39300
C441        C  0.87618014  0.99511335  0.45251767     0.19600
C442        C  0.88809306  0.98151806  0.43192870     0.22200
C443        C  0.87357737  0.96384048  0.41605783    -0.39800
C444        C  0.84655199  0.96036841  0.42287060     0.21000
N445        N  0.80925480  0.96569804  0.44711865    -0.33100
C446        C  0.80471847  0.94739422  0.42811529    -0.10600
C447        C  0.82750885  0.94363514  0.41257296    -0.29400
N448        N  0.91473743  0.98564816  0.43178771    -0.46000
C449        C  0.91981044  0.00193842  0.45248039    -0.05300
C450        C  0.89617306  0.00861457  0.46554690    -0.22700
H451        H  0.84028472  0.00138835  0.47622018     0.19100
H452        H  0.88293192  0.95269734  0.40035911     0.17900
H453        H  0.82996727  0.93008798  0.39623825     0.14200
H454        H  0.89425448  0.01958520  0.48384923     0.14100
H455        H  0.79585859  0.97217482  0.46159719     0.32200
H456        H  0.92875845  0.97647183  0.41960677     0.35000
C457        C  0.66814843  0.73291375  0.18579743     0.20600
C458        C  0.65346551  0.71651325  0.16872278    -0.39300
C459        C  0.63712215  0.72924405  0.15000460     0.19600
C460        C  0.63569991  0.75625351  0.14828886     0.22200
C461        C  0.64997536  0.77266337  0.16573645    -0.39800
C462        C  0.66613451  0.75991938  0.18466096     0.21000
N463        N  0.68619376  0.72564116  0.20426493    -0.33100
C464        C  0.69556203  0.74811633  0.21519423    -0.10600
C465        C  0.68333580  0.76994756  0.20370264    -0.29400
N466        N  0.61960938  0.76350726  0.12807304    -0.46000
C467        C  0.61055364  0.74095670  0.11700199    -0.05300
C468        C  0.62092632  0.71916175  0.13022027    -0.22700
H469        H  0.65505658  0.69540442  0.16960788     0.19100
H470        H  0.64893780  0.79378203  0.16437245     0.17900
H471        H  0.68737763  0.79035431  0.20788445     0.14200
H472        H  0.61744879  0.69873302  0.12566367     0.14100
H473        H  0.69207792  0.70654060  0.20891134     0.32200
H474        H  0.61506930  0.78262312  0.12216842     0.35000
C475        C  0.80541793  0.68120015  0.26742438     0.20600
C476        C  0.82224514  0.66536363  0.28310259    -0.39300
C477        C  0.83698945  0.64648017  0.26922624     0.19600
C478        C  0.83545243  0.64401686  0.24181520     0.22200
C479        C  0.81859185  0.65974548  0.22619154    -0.39800
C480        C  0.80345536  0.67819506  0.24009388     0.21000
N481        N  0.78904287  0.70031081  0.27575744    -0.33100
C482        C  0.77628559  0.70912121  0.25360538    -0.10600
C483        C  0.78469478  0.69580363  0.23099658    -0.29400
N484        N  0.85175058  0.62500947  0.23329365    -0.46000
C485        C  0.86356973  0.61502914  0.25541532    -0.05300
C486        C  0.85481498  0.62782535  0.27828125    -0.22700
H487        H  0.82356465  0.66742674  0.30450834     0.19100
H488        H  0.81717281  0.65759441  0.20479927     0.17900
H489        H  0.77804140  0.69871261  0.21066224     0.14200
H490        H  0.86094042  0.62420917  0.29865969     0.14100
H491        H  0.78635406  0.70666927  0.29530858     0.32200
H492        H  0.85459266  0.61912283  0.21361064     0.35000
C493        C  0.73194109  0.82262092  0.31640895     0.20600
C494        C  0.71850912  0.84179708  0.33113782    -0.39300
C495        C  0.73443139  0.85603892  0.34911496     0.19600
C496        C  0.76172185  0.85188003  0.35183373     0.22200
C497        C  0.77510012  0.83261659  0.33724245    -0.39800
C498        C  0.75910317  0.81806059  0.31964650     0.21000
N499        N  0.72132628  0.80610824  0.29837684    -0.33100
C500        C  0.74185986  0.79072328  0.29043390    -0.10600
C501        C  0.76568393  0.79756002  0.30328653    -0.29400
N502        N  0.77233358  0.86802723  0.37016646    -0.46000
C503        C  0.75155645  0.88228004  0.37944114    -0.05300
C504        C  0.72759268  0.87532697  0.36688264    -0.22700
H505        H  0.69719886  0.84514715  0.32902105     0.19100
H506        H  0.79633316  0.82899781  0.33965727     0.17900
H507        H  0.78519128  0.78866624  0.30098044     0.14200
H508        H  0.70784993  0.88330738  0.37034519     0.14100
H509        H  0.70133510  0.80505222  0.29222413     0.32200
H510        H  0.79232502  0.86895723  0.37634796     0.35000
C511        C  0.83749381  0.01279506  0.56034648     0.20600
C512        C  0.85078971  0.99452180  0.54440563    -0.39300
C513        C  0.87841753  0.99210109  0.54907740     0.19600
C514        C  0.89176697  0.00674942  0.56819557     0.22200
C515        C  0.87828844  0.02423832  0.58481481    -0.39800
C516        C  0.85075846  0.02678394  0.57999423     0.21000
N517        N  0.81187602  0.02067547  0.55808834    -0.33100
C518        C  0.80896741  0.03985781  0.57642113    -0.10600
C519        C  0.83271479  0.04404261  0.59055443    -0.29400
N520        N  0.91841576  0.00460866  0.56541701    -0.46000
C521        C  0.92205413  0.98867466  0.54424780    -0.05300
C522        C  0.89758434  0.97994478  0.53399280    -0.22700
H523        H  0.84076164  0.98431318  0.52832103     0.19100
H524        H  0.88878627  0.03642622  0.59907351     0.17900
H525        H  0.83655640  0.05853325  0.60580156     0.14200
H526        H  0.89425324  0.96910671  0.51577221     0.14100
H527        H  0.79753462  0.01391990  0.54452751     0.32200
H528        H  0.93306738  0.01525545  0.57567844     0.35000
C529        C  0.77785315  0.13627291  0.65297756     0.20600
C530        C  0.79444164  0.15305612  0.66773168    -0.39300
C531        C  0.78162484  0.16773236  0.68739419     0.19600
C532        C  0.75443755  0.16551143  0.69231139     0.22200
C533        C  0.73774794  0.14899594  0.67725466    -0.39800
C534        C  0.75051092  0.13462085  0.65725758     0.21000
N535        N  0.78531550  0.11989137  0.63358991    -0.33100
C536        C  0.76254219  0.10796001  0.62521222    -0.10600
C537        C  0.74033988  0.11673183  0.63932924    -0.29400
N538        N  0.74731430  0.18105580  0.71259020    -0.46000
C539        C  0.77006803  0.19350371  0.72029873    -0.05300
C540        C  0.79185765  0.18582206  0.70499141    -0.22700
H541        H  0.81577256  0.15450519  0.66421771     0.19100
H542        H  0.71645084  0.14739895  0.68089399     0.17900
H543        H  0.71972907  0.11040379  0.63719198     0.14200
H544        H  0.81242692  0.19239247  0.70671875     0.14100
H545        H  0.80471023  0.11699901  0.62647499     0.32200
H546        H  0.72814278  0.18331636  0.72048456     0.35000
C547        C  0.71011220  0.24136322  0.83614145     0.20600
C548        C  0.69677941  0.25637317  0.85524289    -0.39300
C549        C  0.67613193  0.24356129  0.86890685     0.19600
C550        C  0.66956275  0.21760800  0.86430977     0.22200
C551        C  0.68303488  0.20252364  0.84527823    -0.39800
C552        C  0.70337874  0.21551109  0.83121118     0.21000
N553        N  0.72957155  0.24942641  0.81967616    -0.33100
C554        C  0.73508778  0.22870501  0.80387323    -0.10600
C555        C  0.71917455  0.20714714  0.81046309    -0.29400
N556        N  0.64840391  0.21039279  0.87912041    -0.46000
C557        C  0.64124492  0.23205510  0.89286209    -0.05300
C558        C  0.65813732  0.25307728  0.88710001    -0.22700
H559        H  0.70157360  0.27677377  0.85862383     0.19100
H560        H  0.67752242  0.18243383  0.84114243     0.17900
H561        H  0.71889749  0.18811187  0.80105512     0.14200
H562        H  0.65688037  0.27287701  0.89460661     0.14100
H563        H  0.73811821  0.26810990  0.81880546     0.32200
H564        H  0.63881216  0.19218066  0.87913176     0.35000
C565        C  0.83155793  0.30767641  0.76895623     0.20600
C566        C  0.84351446  0.32853627  0.78275586    -0.39300
C567        C  0.85962375  0.34526316  0.76744934     0.19600
C568        C  0.86323492  0.34173311  0.74038544     0.22200
C569        C  0.85149184  0.32069951  0.72663957    -0.39800
C570        C  0.83568531  0.30373980  0.74202960     0.21000
N571        N  0.81496979  0.28937120  0.77885500    -0.33100
C572        C  0.80867906  0.27350537  0.75815086    -0.10600
C573        C  0.82135712  0.28173028  0.73487453    -0.29400
N574        N  0.87919551  0.36053154  0.73034976    -0.46000
C575        C  0.88605936  0.37591690  0.75125315    -0.05300
C576        C  0.87429716  0.36697716  0.77473266    -0.22700
H577        H  0.84048175  0.33153231  0.80384797     0.19100
H578        H  0.85444114  0.31775790  0.70552900     0.17900
H579        H  0.81976064  0.27314303  0.71525249     0.14200
H580        H  0.87622617  0.37528230  0.79445598     0.14100
H581        H  0.80824366  0.28783079  0.79846202     0.32200
H582        H  0.88538312  0.36253866  0.71060838     0.35000
C583        C  0.33082842  0.23729798  0.19047431     0.20600
C584        C  0.34791070  0.22030321  0.17685064    -0.39300
C585        C  0.36244168  0.23156623  0.15599852     0.19600
C586        C  0.36051500  0.25788007  0.14959892     0.22200
C587        C  0.34333924  0.27488346  0.16316272    -0.39800
C588        C  0.32841214  0.26348770  0.18371969     0.21000
N589        N  0.31445146  0.23118437  0.21061513    -0.33100
C590        C  0.30124399  0.25352278  0.21652759    -0.10600
C591        C  0.30936612  0.27414899  0.20018942    -0.29400
N592        N  0.37654065  0.26377075  0.12909249    -0.46000
C593        C  0.38839925  0.24097131  0.12220471    -0.05300
C594        C  0.38007962  0.22039835  0.13842291    -0.22700
H595        H  0.34947494  0.19974956  0.18188071     0.19100
H596        H  0.34148934  0.29535379  0.15787608     0.17900
H597        H  0.30219376  0.29412457  0.20025681     0.14200
H598        H  0.38618831  0.20010859  0.13751825     0.14100
H599        H  0.31206022  0.21280472  0.21948303     0.32200
H600        H  0.37896804  0.28206237  0.12006991     0.35000
C601        C  0.19596224  0.32585732  0.27102104     0.20600
C602        C  0.17775420  0.34006147  0.28648291    -0.39300
C603        C  0.16398863  0.36008545  0.27309364     0.19600
C604        C  0.16786341  0.36523654  0.24630218     0.22200
C605        C  0.18643662  0.35142493  0.23101519    -0.39800
C606        C  0.20040049  0.33165908  0.24445971     0.21000
N607        N  0.21081933  0.30528584  0.27871403    -0.33100
C608        C  0.22496571  0.29821654  0.25694137    -0.10600
C609        C  0.21916654  0.31429641  0.23525233    -0.29400
N610        N  0.15120069  0.38403867  0.23780630    -0.46000
C611        C  0.13681103  0.39113743  0.25937333    -0.05300
C612        C  0.14432314  0.37683448  0.28185990    -0.22700
H613        H  0.17422750  0.33555832  0.30723874     0.19100
H614        H  0.18943202  0.35545477  0.21007409     0.17900
H615        H  0.22711457  0.31301359  0.21529147     0.14200
H616        H  0.13581248  0.37784134  0.30160309     0.14100
H617        H  0.21129395  0.29658287  0.29755131     0.32200
H618        H  0.14949816  0.39139346  0.21844540     0.35000
C619        C  0.16061308  0.04379285  0.42906198     0.20600
C620        C  0.13317345  0.04255250  0.42299517    -0.39300
C621        C  0.11869379  0.02276843  0.43593601     0.19600
C622        C  0.13068031  0.00542466  0.45351881     0.22200
C623        C  0.15831896  0.00630493  0.45913708    -0.39800
C624        C  0.17278729  0.02630763  0.44635340     0.21000
N625        N  0.17819345  0.06191519  0.42072923    -0.33100
C626        C  0.20181285  0.05616780  0.43282871    -0.10600
C627        C  0.19928561  0.03397367  0.44895389    -0.29400
N628        N  0.11201924  0.99095558  0.46602956    -0.46000
C629        C  0.08798426  0.99934987  0.45658585    -0.05300
C630        C  0.09141527  0.01886587  0.43741508    -0.22700
H631        H  0.12353763  0.05684051  0.41022711     0.19100
H632        H  0.16756927  0.99334009  0.47354907     0.17900
H633        H  0.21455896  0.02503976  0.46132964     0.14200
H634        H  0.07598333  0.03061810  0.42805480     0.14100
H635        H  0.17418668  0.07760465  0.40792811     0.32200
H636        H  0.11536430  0.97777284  0.48162715     0.35000
C637        C  0.24080181  0.18785031  0.32197962     0.20600
C638        C  0.22386182  0.17321770  0.33858765    -0.39300
C639        C  0.23672497  0.15532972  0.35556575     0.19600
C640        C  0.26431855  0.15254073  0.35608778     0.22200
C641        C  0.28115612  0.16670982  0.33911526    -0.39800
C642        C  0.26830563  0.18430579  0.32196692     0.21000
N643        N  0.23376696  0.20683087  0.30477730    -0.33100
C644        C  0.25697178  0.21506182  0.29361149    -0.10600
C645        C  0.27888546  0.20134012  0.30360464    -0.29400
N646        N  0.27175667  0.13506342  0.37460201    -0.46000
C647        C  0.24875836  0.12639255  0.38578075    -0.05300
C648        C  0.22641324  0.13841621  0.37435804    -0.22700
H649        H  0.20234574  0.17580489  0.33853800     0.19100
H650        H  0.30270974  0.16441843  0.33945966     0.17900
H651        H  0.29979540  0.20404673  0.29866022     0.14200
H652        H  0.20556310  0.13544176  0.37938120     0.14100
H653        H  0.21446972  0.21377590  0.30088863     0.32200
H654        H  0.29129037  0.12925067  0.37922433     0.35000
C655        C  0.96058336  0.43329425  0.83652618     0.20600
C656        C  0.96138809  0.42805261  0.86388965    -0.39300
C657        C  0.98095741  0.44158466  0.87837878     0.19600
C658        C  0.99864092  0.45891190  0.86651879     0.22200
C659        C  0.99790078  0.46409878  0.83895641    -0.39800
C660        C  0.97801252  0.45067292  0.82439796     0.21000
N661        N  0.94338373  0.42320658  0.81876869    -0.33100
C662        C  0.94955649  0.43414282  0.79496337    -0.10600
C663        C  0.97109438  0.45154757  0.79761424    -0.29400
N664        N  0.01373082  0.47093363  0.88513064    -0.46000
C665        C  0.00521908  0.46140824  0.90888840    -0.05300
C666        C  0.98494253  0.44295519  0.90544155    -0.22700
H667        H  0.94722460  0.41496317  0.87334222     0.19100
H668        H  0.01122360  0.47813982  0.82971164     0.17900
H669        H  0.98047414  0.46307428  0.78212943     0.14200
H670        H  0.97327360  0.43338430  0.92076540     0.14100
H671        H  0.92821576  0.40960124  0.82271348     0.32200
H672        H  0.02751843  0.48603480  0.88200757     0.35000
C673        C  0.95652712  0.55362723  0.17466838     0.20600
C674        C  0.97858951  0.54328539  0.16105116    -0.39300
C675        C  0.97857237  0.54707626  0.13331643     0.19600
C676        C  0.95805378  0.55999609  0.12009361     0.22200
C677        C  0.93627880  0.57072455  0.13375681    -0.39800
C678        C  0.93637709  0.56703045  0.16143950     0.21000
N679        N  0.95134152  0.55206590  0.20094810    -0.33100
C680        C  0.92778441  0.56476154  0.20437544    -0.10600
C681        C  0.91792419  0.57431159  0.18017872    -0.29400
N682        N  0.96078199  0.55781763  0.09355162    -0.46000
C683        C  0.98325059  0.54352664  0.08986126    -0.05300
C684        C  0.99497478  0.53664169  0.11414863    -0.22700
H685        H  0.99411718  0.53226371  0.17114921     0.19100
H686        H  0.91990886  0.58034190  0.12348351     0.17900
H687        H  0.89960035  0.58513161  0.17675917     0.14200
H688        H  0.01154793  0.52334089  0.11731940     0.14100
H689        H  0.96316335  0.54319690  0.21560053     0.32200
H690        H  0.94709279  0.56382637  0.07897222     0.35000
C691        C  0.02368558  0.44929333  0.13043123     0.20600
C692        C  0.02008306  0.45401660  0.15774661    -0.39300
C693        C  0.04049129  0.44472706  0.17457108     0.19600
C694        C  0.06244765  0.43145217  0.16475872     0.22200
C695        C  0.06586156  0.42644681  0.13758227    -0.39800
C696        C  0.04569933  0.43596106  0.12077253     0.21000
N697        N  0.00937426  0.45940510  0.11025173    -0.33100
C698        C  0.02242118  0.45262988  0.08770691    -0.10600
C699        C  0.04510397  0.43786607  0.09339324    -0.29400
N700        N  0.07951038  0.42542792  0.18442685    -0.46000
C701        C  0.06863809  0.43500472  0.20704894    -0.05300
C702        C  0.04420546  0.44727647  0.20178101    -0.22700
H703        H  0.00337263  0.46526691  0.16516696     0.19100
H704        H  0.08359237  0.41693606  0.12998530     0.17900
H705        H  0.06061620  0.43200489  0.07967645     0.14200
H706        H  0.03108153  0.45678184  0.21582997     0.14100
H707        H  0.99309591  0.47212210  0.11179889     0.32200
H708        H  0.09771302  0.41555412  0.18247411     0.35000
C709        C  0.16617283  0.56844681  0.03456210     0.20600
C710        C  0.13921398  0.57618747  0.03528131    -0.39300
C711        C  0.12201034  0.56369352  0.01716955     0.19600
C712        C  0.13103944  0.54497874  0.99952627     0.22200
C713        C  0.15817916  0.53742878  0.99857912    -0.39800
C714        C  0.17542665  0.54984243  0.01691465     0.21000
N715        N  0.18592576  0.57641075  0.05084887    -0.33100
C716        C  0.20811737  0.56281565  0.04389088    -0.10600
C717        C  0.20241244  0.54604181  0.02259074    -0.29400
N718        N  0.11027020  0.53422690  0.98627354    -0.46000
C719        C  0.08783335  0.54597270  0.99568974    -0.05300
C720        C  0.09444218  0.56466719  0.01484586    -0.22700
H721        H  0.13196381  0.59017656  0.04967788     0.19100
H722        H  0.16511620  0.52226837  0.98530161     0.17900
H723        H  0.21590693  0.53246459  0.01306740     0.14200
H724        H  0.08080618  0.57584478  0.02702075     0.14100
H725        H  0.18420053  0.59001543  0.06626395     0.32200
H726        H  0.11118920  0.51860710  0.97290831     0.35000
C727        C  0.83077238  0.44398382  0.01524170     0.20600
C728        C  0.84605957  0.46003124  0.99832236    -0.39300
C729        C  0.87346374  0.45383008  0.99660574     0.19600
C730        C  0.88483007  0.43335132  0.01077772     0.18800
C731        C  0.86946437  0.41700793  0.02718494    -0.39800
C732        C  0.84214787  0.42315912  0.02883687     0.21000
N733        N  0.80470439  0.44666482  0.02173789    -0.33100
C734        C  0.79960207  0.42736152  0.03963095    -0.10600
C735        C  0.82246341  0.41229758  0.04434064    -0.29400
N736        N  0.91169670  0.43354171  0.00846682    -0.46000
C737        C  0.91755718  0.45429880  0.99268341    -0.05300
C738        C  0.89416959  0.46716279  0.98458506    -0.22700
H739        H  0.83752830  0.47678112  0.98815766     0.19100
H740        H  0.87835063  0.40138288  0.03880960     0.17900
H741        H  0.82462613  0.39600151  0.05799667     0.14200
H742        H  0.89271461  0.48533769  0.97354539     0.14100
H743        H  0.79143841  0.46097578  0.01487105     0.32200
H744        H  0.92524941  0.42135523  0.01839103     0.35000
C745        C  0.98132146  0.11507489  0.43901754     0.20600
C746        C  0.96108811  0.12694938  0.42387132    -0.39300
C747        C  0.95950674  0.15422315  0.42580678     0.19600
C748        C  0.97661152  0.16880821  0.44170774     0.22200
C749        C  0.99705457  0.15685899  0.45688588    -0.39800
C750        C  0.99885830  0.12940220  0.45473110     0.21000
N751        N  0.98546355  0.08929577  0.44205116    -0.33100
C752        C  0.00591614  0.08693533  0.45970605    -0.10600
C753        C  0.01505403  0.11154918  0.46790035    -0.29400
N754        N  0.97082151  0.19456327  0.43969918    -0.46000
C755        C  0.95001473  0.19616007  0.42221548    -0.05300
C756        C  0.94243351  0.17136282  0.41334032    -0.22700
H757        H  0.94729227  0.11570623  0.41172030     0.19100
H758        H  0.01037414  0.16803539  0.46960066     0.17900
H759        H  0.02987807  0.11572722  0.48311952     0.14200
H760        H  0.92677904  0.16653628  0.39916736     0.14100
H761        H  0.97415094  0.07418229  0.43362803     0.32200
H762        H  0.98072940  0.21003655  0.44911557     0.35000
C763        C  0.64182084  0.15219035  0.23404460     0.20600
C764        C  0.65396270  0.17062012  0.21723682    -0.39300
C765        C  0.67568312  0.18428840  0.22825186     0.19600
C766        C  0.68474830  0.17974057  0.25394819     0.22200
C767        C  0.67215547  0.16178713  0.27099003    -0.39800
C768        C  0.65024507  0.14828963  0.26006506     0.21000
N769        N  0.62208583  0.13544647  0.22770531    -0.33100
C770        C  0.61772005  0.12097643  0.24990072    -0.10600
C771        C  0.63464958  0.12857498  0.27064632    -0.29400
N772        N  0.70669763  0.19411298  0.25913738    -0.46000
C773        C  0.71143293  0.20808574  0.23668372    -0.05300
C774        C  0.69242339  0.20265048  0.21702671    -0.22700
H775        H  0.64743978  0.17358273  0.19686868     0.19100
H776        H  0.67930998  0.15812188  0.29102921     0.17900
H777        H  0.63626723  0.11992398  0.29027776     0.14200
H778        H  0.69144655  0.21052923  0.19702215     0.14100
H779        H  0.61251316  0.13361446  0.20925074     0.32200
H780        H  0.71781850  0.19434197  0.27681000     0.35000
C781        C  0.73862742  0.31126236  0.16378871     0.20600
C782        C  0.72238984  0.32741067  0.14782833    -0.39300
C783        C  0.73607729  0.34584094  0.13216037     0.19600
C784        C  0.76376839  0.34768513  0.13219867     0.22200
C785        C  0.77991558  0.33180258  0.14832776    -0.39800
C786        C  0.76626589  0.31368356  0.16418565     0.21000
N787        N  0.73067952  0.29221082  0.18049613    -0.33100
C788        C  0.75345603  0.28277905  0.19174423    -0.10600
C789        C  0.77601489  0.29572564  0.18213928    -0.29400
N790        N  0.77203813  0.36626938  0.11525289    -0.46000
C791        C  0.74950732  0.37661046  0.10450028    -0.05300
C792        C  0.72659617  0.36450034  0.11460575    -0.22700
H793        H  0.70076435  0.32577907  0.14765981     0.19100
H794        H  0.80154018  0.33346693  0.14853689     0.17900
H795        H  0.79675529  0.29236870  0.18752092     0.14200
H796        H  0.70591239  0.36861428  0.10958729     0.14100
H797        H  0.71102528  0.28623716  0.18427794     0.32200
H798        H  0.79183353  0.37172971  0.11138504     0.35000
C799        C  0.82682656  0.22616322  0.29594611     0.20600
C800        C  0.83994643  0.21157721  0.31580941    -0.39300
C801        C  0.86088997  0.22455494  0.32910883     0.19600
C802        C  0.86797746  0.25013336  0.32316468     0.22200
C803        C  0.85537273  0.26442115  0.30287379    -0.39800
C804        C  0.83461100  0.25142366  0.28950621     0.21000
N805        N  0.80527405  0.21900329  0.28153447    -0.33100
C806        C  0.79953100  0.23982377  0.26574383    -0.10600
C807        C  0.81751693  0.26030289  0.26998282    -0.29400
N808        N  0.88690430  0.25882020  0.34001352    -0.46000
C809        C  0.89209027  0.23860597  0.35670789    -0.05300
C810        C  0.87651555  0.21674693  0.35038998    -0.22700
H811        H  0.83377313  0.19191922  0.32107495     0.19100
H812        H  0.86076008  0.28448649  0.29840327     0.17900
H813        H  0.81743831  0.27947136  0.26075012     0.14200
H814        H  0.87579064  0.19817498  0.36078267     0.14100
H815        H  0.79490404  0.20122958  0.28262510     0.32200
H816        H  0.89539280  0.27752691  0.34046967     0.35000
C817        C  0.99944490  0.54508092  0.86762286     0.20600
C818        C  0.99850303  0.53909582  0.84028328    -0.39300
C819        C  0.01844731  0.55085180  0.82456820     0.19600
C820        C  0.03740088  0.56761860  0.83535778     0.22200
C821        C  0.03805114  0.57393801  0.86246905    -0.39800
C822        C  0.01854163  0.56185174  0.87818851     0.21000
N823        N  0.98523241  0.53377499  0.88721806    -0.33100
C824        C  0.99574843  0.54305240  0.91032351    -0.10600
C825        C  0.01636468  0.56080576  0.90547358    -0.29400
N826        N  0.05490853  0.57533373  0.81681035    -0.46000
C827        C  0.04738256  0.56337986  0.79389824    -0.05300
C828        C  0.02460905  0.54788693  0.79787500    -0.22700
H829        H  0.98422758  0.52524926  0.83213135     0.19100
H830        H  0.05353232  0.58629466  0.87093509     0.17900
H831        H  0.02958905  0.56981118  0.91995952     0.14200
H832        H  0.01427949  0.53582534  0.78339550     0.14100
H833        H  0.97086365  0.51901030  0.88508142     0.32200
H834        H  0.07132996  0.58775618  0.81973507     0.35000
C835        C  0.15860240  0.95586437  0.57585526     0.20600
C836        C  0.13168471  0.95813967  0.58346833    -0.39300
C837        C  0.11688873  0.97762184  0.57029482     0.19600
C838        C  0.12812911  0.99368016  0.55108937     0.22200
C839        C  0.15522159  0.99179626  0.54394460    -0.39800
C840        C  0.16996438  0.97219697  0.55698810     0.21000
N841        N  0.17629724  0.93773582  0.58401659    -0.33100
C842        C  0.19912820  0.94250401  0.57026727    -0.10600
C843        C  0.19598289  0.96394112  0.55326963    -0.29400
N844        N  0.10912769  0.00791125  0.53878741    -0.46000
C845        C  0.08556219  0.00066154  0.54994806    -0.05300
C846        C  0.08967221  0.98215107  0.57004373    -0.22700
H847        H  0.12256553  0.94479198  0.59754822     0.19100
H848        H  0.16378905  0.00370914  0.52828666     0.17900
H849        H  0.21050753  0.97193229  0.53952317     0.14200
H850        H  0.07453753  0.97133407  0.58086193     0.14100
H851        H  0.17289093  0.92276115  0.59781346     0.32200
H852        H  0.11180455  0.02007769  0.52223726     0.35000
C853        C  0.18428954  0.66792389  0.75582379     0.20600
C854        C  0.16919140  0.65103883  0.77194592    -0.39300
C855        C  0.15027665  0.63551097  0.75855208     0.19600
C856        C  0.14705421  0.63638746  0.73116331     0.22200
C857        C  0.16205125  0.65333819  0.71506915    -0.39800
C858        C  0.18057171  0.66921941  0.72850902     0.21000
N859        N  0.20318513  0.68502117  0.76372179    -0.33100
C860        C  0.21117188  0.69752660  0.74130617    -0.10600
C861        C  0.19751852  0.68827463  0.71895852    -0.29400
N862        N  0.12787017  0.61965279  0.72324545    -0.46000
C863        C  0.11856727  0.60829661  0.74577767    -0.05300
C864        C  0.13197738  0.61770376  0.76823419    -0.22700
H865        H  0.17173580  0.65029897  0.79334591     0.19100
H866        H  0.15924661  0.65433804  0.69370918     0.17900
H867        H  0.19972222  0.69464804  0.69851799     0.14200
H868        H  0.12876487  0.61223791  0.78880636     0.14100
H869        H  0.20987602  0.68833156  0.78316286     0.32200
H870        H  0.12124015  0.61643650  0.70376517     0.35000
C871        C  0.26001582  0.80794260  0.67444719     0.20600
C872        C  0.27488536  0.82695389  0.66085775    -0.39300
C873        C  0.26071633  0.84128433  0.64167614     0.19600
C874        C  0.23366770  0.83738514  0.63675173     0.22200
C875        C  0.21884538  0.81811990  0.65015055    -0.39800
C876        C  0.23315761  0.80343106  0.66904198     0.21000
N877        N  0.26883250  0.79194227  0.69375806    -0.33100
C878        C  0.24753715  0.77690394  0.70047297    -0.10600
C879        C  0.22492158  0.78336586  0.68544813    -0.29400
N880        N  0.22468735  0.85433275  0.61827932    -0.46000
C881        C  0.24633764  0.86875523  0.61123094    -0.05300
C882        C  0.26917019  0.86112489  0.62524914    -0.22700
H883        H  0.29591457  0.83037867  0.66496862     0.19100
H884        H  0.19775265  0.81487676  0.64623318     0.17900
H885        H  0.20510313  0.77480758  0.68665747     0.14200
H886        H  0.28909196  0.86946213  0.62406231     0.14100
H887        H  0.28815951  0.79119970  0.70177100     0.32200
H888        H  0.20517291  0.85600219  0.61095010     0.35000
C889        C  0.31801744  0.72755314  0.81028931     0.20600
C890        C  0.33157314  0.71345552  0.83016416    -0.39300
C891        C  0.35290714  0.72662731  0.84251188     0.19600
C892        C  0.35987101  0.75207751  0.83591065     0.22200
C893        C  0.34649018  0.76609761  0.81584529    -0.39800
C894        C  0.32541408  0.75276443  0.80321564     0.21000
N895        N  0.29704930  0.71942851  0.79563585    -0.33100
C896        C  0.29121290  0.73950097  0.77895633    -0.10600
C897        C  0.30851410  0.76062512  0.78301068    -0.29400
N898        N  0.38025949  0.76048676  0.85121125    -0.46000
C899        C  0.38652372  0.74009951  0.86736307    -0.05300
C900        C  0.37003229  0.71858377  0.86246639    -0.22700
H901        H  0.32591931  0.69369759  0.83560892     0.19100
H902        H  0.35204022  0.78591358  0.81050242     0.17900
H903        H  0.30860162  0.77924020  0.77266803     0.14200
H904        H  0.37015617  0.69985709  0.87258998     0.14100
H905        H  0.28741070  0.70123388  0.79678140     0.32200
H906        H  0.38937084  0.77890308  0.85070408     0.35000
C907        C  0.57213450  0.82613017  0.03210154     0.20600
C908        C  0.57994364  0.85241586  0.03198679    -0.39300
C909        C  0.56487356  0.86887520  0.01558239     0.19600
C910        C  0.54374834  0.85983393  0.00011940     0.22200
C911        C  0.53620696  0.83328403  0.99986225    -0.39800
C912        C  0.55120177  0.81674319  0.01662317     0.21000
N913        N  0.58184432  0.80732704  0.04794156    -0.33100
C914        C  0.56704861  0.78564432  0.04285827    -0.10600
C915        C  0.54778945  0.79059655  0.02318063    -0.29400
N916        N  0.53052571  0.88000103  0.98904948    -0.46000
C917        C  0.54310309  0.90183161  0.99799467    -0.05300
C918        C  0.56478322  0.89568351  0.01431193    -0.22700
H919        H  0.59559028  0.85978737  0.04498108     0.19100
H920        H  0.51900876  0.82634831  0.98869080     0.17900
H921        H  0.53262608  0.77731697  0.01566645     0.14200
H922        H  0.57703986  0.90904823  0.02585353     0.14100
H923        H  0.59716379  0.80941862  0.06202681     0.32200
H924        H  0.51266190  0.87905082  0.97806784     0.35000
C925        C  0.43220893  0.83239545  0.94019968     0.20600
C926        C  0.42694223  0.85931685  0.93770406    -0.39300
C927        C  0.43591692  0.87506651  0.95879033     0.19600
C928        C  0.44870901  0.86453563  0.98083467     0.22200
C929        C  0.45382555  0.83756717  0.98340155    -0.39800
C930        C  0.44530772  0.82190273  0.96206477     0.21000
N931        N  0.42618932  0.81358260  0.92256224    -0.33100
C932        C  0.43568453  0.79087210  0.93304159    -0.10600
C933        C  0.44789999  0.79525761  0.95770456    -0.29400
N934        N  0.45739814  0.88364798  0.99687967    -0.46000
C935        C  0.45073844  0.90664355  0.98501430    -0.05300
C936        C  0.43696792  0.90208014  0.96118951    -0.22700
H937        H  0.41738663  0.86749653  0.92018321     0.19100
H938        H  0.46457428  0.82955695  0.00030809     0.17900
H939        H  0.45702359  0.78092981  0.97078534     0.14200
H940        H  0.43069548  0.91643977  0.94656892     0.14100
H941        H  0.41620421  0.81606833  0.90450961     0.32200
H942        H  0.46918299  0.88107881  0.01422905     0.35000
C943        C  0.55631395  0.00411287  0.12823346     0.20600
C944        C  0.55352846  0.00097832  0.15594922    -0.39300
C945        C  0.56222057  0.02216473  0.17156246     0.19600
C946        C  0.57315405  0.04444963  0.16024148     0.22200
C947        C  0.57607650  0.04749153  0.13263402    -0.39800
C948        C  0.56712752  0.02651590  0.11704380     0.21000
N949        N  0.54701900  0.98815288  0.10911640    -0.33100
C950        C  0.55158748  0.00055707  0.08558256    -0.10600
C951        C  0.56436908  0.02449067  0.08973247    -0.29400
N952        N  0.57946536  0.06196828  0.17903877    -0.46000
C953        C  0.57238511  0.05108959  0.20263875    -0.05300
C954        C  0.56145154  0.02615946  0.19885116    -0.22700
H955        H  0.54434171  0.98375852  0.16461438     0.19100
H956        H  0.58391450  0.06530132  0.12389851     0.17900
H957        H  0.56885733  0.03935322  0.07501350     0.14200
H958        H  0.55409683  0.01281334  0.21391429     0.14100
H959        H  0.53646897  0.97068868  0.11206715     0.32200
H960        H  0.58798156  0.08043686  0.17591319     0.35000
C961        C  0.44083491  0.96204443  0.12950222     0.20600
C962        C  0.42640674  0.94327820  0.14402557    -0.39300
C963        C  0.43241203  0.94170186  0.17127281     0.19600
C964        C  0.45124095  0.95767848  0.18340770     0.22200
C965        C  0.46533182  0.97694662  0.16891017    -0.39800
C966        C  0.45937284  0.97850847  0.14144304     0.21000
N967        N  0.44122318  0.96483149  0.10289894    -0.33100
C968        C  0.46012243  0.98320452  0.09750856    -0.10600
C969        C  0.47162864  0.99253230  0.12114803    -0.29400
N970        N  0.45430485  0.95101061  0.20931223    -0.46000
C971        C  0.43733673  0.93056710  0.21350625    -0.05300
C972        C  0.42333602  0.92439282  0.19021208    -0.22700
H973        H  0.41246233  0.92993915  0.13453236     0.19100
H974        H  0.48066437  0.98899971  0.17806233     0.17900
H975        H  0.48858459  0.00565828  0.12305083     0.14200
H976        H  0.40887172  0.90881409  0.18733103     0.14100
H977        H  0.43051689  0.95358002  0.08911762     0.32200
H978        H  0.46742805  0.95947928  0.22308903     0.35000
C979        C  0.43079024  0.10491565  0.02562758     0.20600
C980        C  0.41756669  0.12016208  0.04442807    -0.39300
C981        C  0.42293660  0.14701370  0.04338602     0.19600
C982        C  0.44017161  0.15814159  0.02502663     0.22200
C983        C  0.45280909  0.14296811  0.00549785    -0.39800
C984        C  0.44728831  0.11595606  0.00649626     0.21000
N985        N  0.43206007  0.07864630  0.02521235    -0.33100
C986        C  0.44931645  0.07287759  0.00553090    -0.10600
C987        C  0.45886414  0.09557876  0.99306140    -0.29400
N988        N  0.44355159  0.18387725  0.02998536    -0.46000
C989        C  0.42828136  0.18889104  0.05166144    -0.05300
C990        C  0.41506702  0.16640855  0.06033008    -0.22700
H991        H  0.40520767  0.11155434  0.05979093     0.19100
H992        H  0.46695030  0.15129661  0.99154697     0.17900
H993        H  0.47450276  0.09699495  0.97825039     0.14200
H994        H  0.40215998  0.16429962  0.07745818     0.14100
H995        H  0.42316717  0.06560256  0.03856429     0.32200
H996        H  0.45584656  0.19699182  0.01970072     0.35000
C997        C  0.55417770  0.16272913  0.97540788     0.20600
C998        C  0.53945697  0.15121677  0.99628035    -0.39300
C999        C  0.54153661  0.12382880  0.99861138     0.19600
C1000       C  0.55681128  0.10924422  0.98118361     0.22200
C1001       C  0.57121481  0.12059655  0.96032343    -0.39800
C1002       C  0.56939824  0.14779825  0.95824863     0.21000
N1003       N  0.55649227  0.18837867  0.96932074    -0.33100
C1004       C  0.57347052  0.18953988  0.94828534    -0.10600
C1005       C  0.58172799  0.16458641  0.94083510    -0.29400
N1006       N  0.55421516  0.08367494  0.98619512    -0.46000
C1007       C  0.53709620  0.08165261  0.00694112    -0.05300
C1008       C  0.52887957  0.10630491  0.01551568    -0.22700
H1009       H  0.52728608  0.16267758  0.00964993     0.19100
H1010       H  0.58291685  0.10904310  0.94660896     0.17900
H1011       H  0.59549441  0.15944729  0.92511774     0.14200
H1012       H  0.51398149  0.11067212  0.03042428     0.14100
H1013       H  0.54768339  0.20407150  0.97924406     0.32200
H1014       H  0.56244367  0.06842710  0.97508565     0.35000
C1015       C  0.01923649  0.11429166  0.56562419     0.20600
C1016       C  0.03878362  0.12730330  0.58075414    -0.39300
C1017       C  0.03940289  0.15459959  0.57813643     0.19600
C1018       C  0.02191591  0.16815566  0.56171782     0.22200
C1019       C  0.00181494  0.15513026  0.54698840    -0.39800
C1020       C  0.00111719  0.12764174  0.54967303     0.21000
N1021       N  0.01682638  0.08830531  0.56229955    -0.33100
C1022       C  0.99690259  0.08482040  0.54424867    -0.10600
C1023       C  0.98631405  0.10891473  0.53613662    -0.29400
N1024       N  0.02790893  0.19396411  0.56167742    -0.46000
C1025       C  0.04934981  0.19666613  0.57824098    -0.05300
C1026       C  0.05689239  0.17251863  0.58889308    -0.22700
H1027       H  0.05326662  0.11682399  0.59281042     0.19100
H1028       H  0.98843391  0.16548713  0.53363249     0.17900
H1029       H  0.97169106  0.11232089  0.52052616     0.14200
H1030       H  0.07341296  0.16850735  0.60233407     0.14100
H1031       H  0.02904545  0.07385717  0.57067350     0.32200
H1032       H  0.01822668  0.20871726  0.55090327     0.35000
C1033       C  0.43748595  0.03125334  0.83195570     0.20600
C1034       C  0.43149447  0.03005031  0.85905675    -0.39300
C1035       C  0.44571220  0.01143129  0.87371105     0.19600
C1036       C  0.46452160  0.99505747  0.86236336     0.22200
C1037       C  0.47032888  0.99606652  0.83499206    -0.39800
C1038       C  0.45610518  0.01495871  0.82021442     0.21000
N1039       N  0.42736934  0.04813811  0.81421744    -0.33100
C1040       C  0.43953698  0.04287753  0.79082049    -0.10600
C1041       C  0.45766827  0.02221306  0.79367524    -0.29400
N1042       N  0.47729599  0.98112528  0.88131732    -0.46000
C1043       C  0.46660947  0.98913196  0.90467617    -0.05300
C1044       C  0.44669258  0.00771385  0.90066975    -0.22700
H1045       H  0.41752023  0.04338391  0.86826783     0.19100
H1046       H  0.48553752  0.98385791  0.82611565     0.17900
H1047       H  0.47041457  0.01388146  0.77855441     0.14200
H1048       H  0.43603430  0.01870507  0.91565283     0.14100
H1049       H  0.41315363  0.06265920  0.81796885     0.32200
H1050       H  0.49352575  0.96853572  0.87870490     0.35000
C1051       C  0.11825627  0.43675892  0.97754024     0.20600
C1052       C  0.13172272  0.42108476  0.95900078    -0.39300
C1053       C  0.15949576  0.42521426  0.95701435     0.19600
C1054       C  0.17299774  0.44357263  0.97224695     0.22200
C1055       C  0.15958678  0.45894172  0.99118157    -0.39800
C1056       C  0.13175540  0.45473356  0.99326398     0.21000
N1057       N  0.09156540  0.43861682  0.98101967    -0.33100
C1058       C  0.08790451  0.45792398  0.99912818    -0.10600
C1059       C  0.11260161  0.46812807  0.00750140    -0.29400
N1060       N  0.19922138  0.44438259  0.96570945    -0.46000
C1061       C  0.20240305  0.42628443  0.94621945    -0.05300
C1062       C  0.17802320  0.41397442  0.94038796    -0.22700
H1063       H  0.12119883  0.40732253  0.94634021     0.19100
H1064       H  0.16989606  0.47366850  0.00284924     0.17900
H1065       H  0.11596074  0.48481523  0.02034269     0.14200
H1066       H  0.17428325  0.39894106  0.92567296     0.14100
H1067       H  0.07672357  0.42852397  0.97045083     0.32200
H1068       H  0.21396567  0.45646683  0.97394733     0.35000
C1069       C  0.18100856  0.25207478  0.69330518     0.20600
C1070       C  0.16122068  0.26736656  0.68099376    -0.39300
C1071       C  0.14617027  0.25478157  0.66118181     0.19600
C1072       C  0.15023811  0.22883345  0.65442626     0.22200
C1073       C  0.17030781  0.21364345  0.66648010    -0.39800
C1074       C  0.18562186  0.22634845  0.68605733     0.21000
N1075       N  0.19762802  0.25933520  0.71303212    -0.33100
C1076       C  0.21311816  0.23817852  0.71819093    -0.10600
C1077       C  0.20637859  0.21725245  0.70167247    -0.29400
N1078       N  0.13279255  0.22129841  0.63548528    -0.46000
C1079       C  0.11780468  0.24271608  0.62995227    -0.05300
C1080       C  0.12561233  0.26401572  0.64546079    -0.22700
H1081       H  0.15773442  0.28753459  0.68650747     0.19100
H1082       H  0.17367527  0.19342414  0.66109192     0.17900
H1083       H  0.21514025  0.19789685  0.70148259     0.14200
H1084       H  0.11717165  0.28351177  0.64541771     0.14100
H1085       H  0.19841693  0.27756785  0.72238329     0.32200
H1086       H  0.13133071  0.20282992  0.62667696     0.35000
C1087       C  0.31997363  0.16931715  0.74047422     0.20600
C1088       C  0.33298508  0.15136600  0.72392347    -0.39300
C1089       C  0.35340797  0.13672586  0.73601459     0.19600
C1090       C  0.35999103  0.13941259  0.76268320     0.22200
C1091       C  0.34713903  0.15755142  0.77918394    -0.39800
C1092       C  0.32701545  0.17253022  0.76696485     0.21000
N1093       N  0.29986163  0.18544506  0.73376678    -0.33100
C1094       C  0.29424218  0.19926362  0.75603398    -0.10600
C1095       C  0.31082506  0.19185664  0.77716545    -0.29400
N1096       N  0.37976253  0.12288144  0.76946822    -0.46000
C1097       C  0.38605157  0.10990062  0.74685802    -0.05300
C1098       C  0.37013876  0.11803830  0.72553708    -0.22700
H1099       H  0.32765988  0.14904309  0.70314612     0.19100
H1100       H  0.35247067  0.15988061  0.79995844     0.17900
H1101       H  0.31078573  0.19934611  0.79730045     0.14200
H1102       H  0.37061976  0.11105884  0.70521968     0.14100
H1103       H  0.29060935  0.18704584  0.71513272     0.32200
H1104       H  0.38866691  0.12078554  0.78820537     0.35000
C1105       C  0.26524665  0.30272916  0.82875773     0.20600
C1106       C  0.28057085  0.31871036  0.84570401    -0.39300
C1107       C  0.26618213  0.33744948  0.86012341     0.19600
C1108       C  0.23859926  0.33975111  0.85821033     0.22200
C1109       C  0.22329517  0.32380509  0.84125500    -0.39800
C1110       C  0.23772962  0.30542867  0.82646237     0.21000
N1111       N  0.27419514  0.28404163  0.81225493    -0.33100
C1112       C  0.25223612  0.27512878  0.79910055    -0.10600
C1113       C  0.22914833  0.28798801  0.80740363    -0.29400
N1114       N  0.22972418  0.35920052  0.87378528    -0.46000
C1115       C  0.25185591  0.36959081  0.88542218    -0.05300
C1116       C  0.27497923  0.35657155  0.87737855    -0.22700
H1117       H  0.30214237  0.31703092  0.84715792     0.19100
H1118       H  0.20179865  0.32590520  0.83932204     0.17900
H1119       H  0.20886830  0.28514674  0.80021328     0.14200
H1120       H  0.29545958  0.36067231  0.88324800     0.14100
H1121       H  0.29403774  0.27819650  0.80959598     0.32200
H1122       H  0.20991368  0.36534778  0.87597447     0.35000
C1123       C  0.83164916  0.55393903  0.98146400     0.20600
C1124       C  0.84624198  0.53999002  0.00083591    -0.39300
C1125       C  0.87399469  0.54501578  0.00164914     0.19600
C1126       C  0.88625868  0.56250291  0.98444235     0.22200
C1127       C  0.87161904  0.57683042  0.96557723    -0.39800
C1128       C  0.84402295  0.57180374  0.96477706     0.21000
N1129       N  0.80533974  0.55172415  0.97541427    -0.33100
C1130       C  0.80117252  0.56837656  0.95471626    -0.10600
C1131       C  0.82482954  0.58121659  0.94771625    -0.29400
N1132       N  0.91308945  0.56106316  0.98650392    -0.46000
C1133       C  0.91809441  0.54241415  0.00506681    -0.05300
C1134       C  0.89416336  0.53233051  0.01531395    -0.22700
H1135       H  0.83693377  0.52541620  0.01346587     0.19100
H1136       H  0.88120531  0.58995888  0.95159239     0.17900
H1137       H  0.82774161  0.59522865  0.93177911     0.14200
H1138       H  0.89185934  0.51584744  0.02870247     0.14100
H1139       H  0.79127167  0.53953456  0.98453885     0.32200
H1140       H  0.92706440  0.57065833  0.97447237     0.35000
C1141       C  0.95860409  0.82254678  0.55166899     0.20600
C1142       C  0.97901926  0.83640150  0.53862715    -0.39300
C1143       C  0.97999837  0.86344572  0.54356015     0.19600
C1144       C  0.96202956  0.87587417  0.56019476     0.22200
C1145       C  0.94194433  0.86191727  0.57365765    -0.39800
C1146       C  0.94093549  0.83487781  0.56865839     0.21000
N1147       N  0.95264521  0.79689639  0.54940395    -0.33100
C1148       C  0.93100998  0.79288097  0.56511166    -0.10600
C1149       C  0.92321243  0.81613022  0.57743864    -0.29400
N1150       N  0.96502826  0.90208130  0.55882162    -0.46000
C1151       C  0.98505696  0.90625337  0.54119513    -0.05300
C1152       C  0.99496307  0.88267087  0.53146085    -0.22700
H1153       H  0.99245249  0.82702182  0.52477364     0.19100
H1154       H  0.92742492  0.87155330  0.58618143     0.17900
H1155       H  0.90658551  0.81898095  0.59086717     0.14200
H1156       H  0.00946181  0.88008990  0.51574315     0.14100
H1157       H  0.96261761  0.78303426  0.53785962     0.32200
H1158       H  0.95293461  0.91619799  0.56770936     0.35000
C1159       C  0.76125006  0.67699999  0.82278129     0.20600
C1160       C  0.77724630  0.65888886  0.83646952    -0.39300
C1161       C  0.76423974  0.64456387  0.85638385     0.19600
C1162       C  0.73726614  0.64770696  0.86187358     0.22200
C1163       C  0.72137153  0.66608198  0.84846100    -0.39800
C1164       C  0.73449187  0.68072478  0.82886938     0.21000
N1165       N  0.76871068  0.69272971  0.80272694    -0.33100
C1166       C  0.74662343  0.70676483  0.79632311    -0.10600
C1167       C  0.72491800  0.69997954  0.81224744    -0.29400
N1168       N  0.72947300  0.63112311  0.88105644    -0.46000
C1169       C  0.75175142  0.61766701  0.88804283    -0.05300
C1170       C  0.77388037  0.62553100  0.87324618    -0.22700
H1171       H  0.79821339  0.65610457  0.83189770     0.19100
H1172       H  0.70035124  0.66871550  0.85289029     0.17900
H1173       H  0.70477793  0.70775937  0.81142385     0.14200
H1174       H  0.79410701  0.61799822  0.87436935     0.14100
H1175       H  0.78764242  0.69395075  0.79403543     0.32200
H1176       H  0.71027452  0.62917159  0.88901234     0.35000
C1177       C  0.80383075  0.75366499  0.67808019     0.20600
C1178       C  0.81475421  0.76786438  0.65687096    -0.39300
C1179       C  0.83377082  0.75460011  0.64167275     0.19600
C1180       C  0.84110039  0.72895992  0.64686543     0.22200
C1181       C  0.83021536  0.71473423  0.66823038    -0.39800
C1182       C  0.81142953  0.72819474  0.68374993     0.21000
N1183       N  0.78551478  0.76205002  0.69548916    -0.33100
C1184       C  0.78150668  0.74191926  0.71258364    -0.10600
C1185       C  0.79740019  0.72044140  0.70603153    -0.29400
N1186       N  0.85996794  0.72106363  0.62965215    -0.46000
C1187       C  0.86487957  0.74202192  0.61378189    -0.05300
C1188       C  0.84891268  0.76324794  0.62064785    -0.22700
H1189       H  0.80911126  0.78791218  0.65272423     0.19100
H1190       H  0.83618996  0.69483703  0.67265213     0.17900
H1191       H  0.79836229  0.70168459  0.71605334     0.14200
H1192       H  0.84878085  0.78256243  0.61173689     0.14100
H1193       H  0.77639040  0.78043765  0.69579870     0.32200
H1194       H  0.86949817  0.70287386  0.62923810     0.35000
C1195       C  0.57839755  0.96077941  0.84481280     0.20600
C1196       C  0.58423890  0.95980026  0.87201911    -0.39300
C1197       C  0.57092123  0.97791480  0.88783469     0.19600
C1198       C  0.55306426  0.99594890  0.87741477     0.22200
C1199       C  0.54741359  0.99727764  0.84983875    -0.39800
C1200       C  0.56077096  0.97877771  0.83390775     0.21000
N1201       N  0.58762164  0.94447072  0.82622271    -0.33100
C1202       C  0.57594269  0.95179338  0.80301809    -0.10600
C1203       C  0.55897782  0.97324339  0.80690396    -0.29400
N1204       N  0.54051619  0.00845712  0.89733118    -0.46000
C1205       C  0.55025765  0.99778799  0.92034439    -0.05300
C1206       C  0.56949535  0.97905593  0.91511234    -0.22700
H1207       H  0.59729284  0.94504899  0.88048122     0.19100
H1208       H  0.53278859  0.01071483  0.84163007     0.17900
H1209       H  0.54670182  0.98306846  0.79215312     0.14200
H1210       H  0.57904182  0.96605104  0.92927769     0.14100
H1211       H  0.60089191  0.92893593  0.82931119     0.32200
H1212       H  0.52464663  0.02164640  0.89534726     0.35000
C1213       C  0.64777622  0.85049438  0.76933988     0.20600
C1214       C  0.66136753  0.83178146  0.78484436    -0.39300
C1215       C  0.67789880  0.81453340  0.77074057     0.19600
C1216       C  0.68087360  0.81609707  0.74338467     0.22200
C1217       C  0.66700535  0.83448160  0.72789856    -0.39800
C1218       C  0.65030643  0.85149027  0.74192220     0.21000
N1219       N  0.63108817  0.86930379  0.77783979    -0.33100
C1220       C  0.62277959  0.88210100  0.75559468    -0.10600
C1221       C  0.63428343  0.87148583  0.73283892    -0.29400
N1222       N  0.69849064  0.79828319  0.73478820    -0.46000
C1223       C  0.70662913  0.78505715  0.75674456    -0.05300
C1224       C  0.69410973  0.79445372  0.77957817    -0.22700
H1225       H  0.65935398  0.83082521  0.80626801     0.19100
H1226       H  0.66921319  0.83558483  0.70650106     0.17900
H1227       H  0.63143844  0.87770507  0.71240551     0.14200
H1228       H  0.69698060  0.78789336  0.79989759     0.14100
H1229       H  0.62551780  0.87305234  0.79748120     0.32200
H1230       H  0.70463433  0.79531222  0.71516922     0.35000
C1231       C  0.46694328  0.32229284  0.06707733     0.20600
C1232       C  0.47166622  0.34811127  0.07562282    -0.39300
C1233       C  0.48015250  0.36570107  0.05589704     0.19600
C1234       C  0.48361162  0.35780711  0.02981044     0.22200
C1235       C  0.47980525  0.33187666  0.02146883    -0.39800
C1236       C  0.47124519  0.31437837  0.04111859     0.21000
N1237       N  0.45585327  0.30283735  0.08116178    -0.33100
C1238       C  0.45302897  0.28241062  0.06415825    -0.10600
C1239       C  0.46278854  0.28868288  0.03900193    -0.29400
N1240       N  0.48868209  0.37841200  0.01424251    -0.46000
C1241       C  0.48855061  0.39972238  0.03023107    -0.05300
C1242       C  0.48373384  0.39266231  0.05662246    -0.22700
H1243       H  0.46756577  0.35432882  0.09577098     0.19100
H1244       H  0.48187847  0.32612254  0.00085335     0.17900
H1245       H  0.46193630  0.27681939  0.02119402     0.14200
H1246       H  0.48128824  0.40552744  0.07350882     0.14100
H1247       H  0.44951863  0.30378278  0.10094407     0.32200
H1248       H  0.49117465  0.37810732  0.99366406     0.35000
C1249       C  0.54440256  0.31820567  0.93428886     0.20600
C1250       C  0.52155124  0.33422100  0.93628475    -0.39300
C1251       C  0.52628156  0.36144620  0.93514309     0.19600
C1252       C  0.55185047  0.37174803  0.93271106     0.22200
C1253       C  0.57443562  0.35583440  0.93014551    -0.39800
C1254       C  0.56968483  0.32886248  0.93097908     0.21000
N1255       N  0.54570243  0.29178691  0.93507326    -0.33100
C1256       C  0.57203086  0.28590750  0.93193141    -0.10600
C1257       C  0.58742529  0.30854422  0.92937760    -0.29400
N1258       N  0.55179500  0.39772822  0.93656749    -0.46000
C1259       C  0.52602932  0.40432449  0.94124987    -0.05300
C1260       C  0.50939098  0.38228718  0.94002432    -0.22700
H1261       H  0.50173606  0.32615958  0.93939945     0.19100
H1262       H  0.59445612  0.36388851  0.92867176     0.17900
H1263       H  0.60885484  0.30991603  0.92641824     0.14200
H1264       H  0.48845996  0.38119164  0.94544039     0.14100
H1265       H  0.52972528  0.27865598  0.93693897     0.32200
H1266       H  0.56860223  0.40986583  0.93830422     0.35000
C1267       C  0.62967871  0.49471815  0.03898726     0.20600
C1268       C  0.65703692  0.49488913  0.03210128    -0.39300
C1269       C  0.67337565  0.47696744  0.04594232     0.19600
C1270       C  0.66310494  0.46065823  0.06542805     0.22200
C1271       C  0.63607216  0.46104827  0.07283186    -0.39800
C1272       C  0.61973719  0.47853438  0.05875413     0.21000
N1273       N  0.60944693  0.50685994  0.02620850    -0.33100
C1274       C  0.58650015  0.49810145  0.03772972    -0.10600
C1275       C  0.59220424  0.48068158  0.05837081    -0.29400
N1276       N  0.68181978  0.44394934  0.07415321    -0.46000
C1277       C  0.70434871  0.44925051  0.06015443    -0.05300
C1278       C  0.69999876  0.46998991  0.04241251    -0.22700
H1279       H  0.66469724  0.50696017  0.01611789     0.19100
H1280       H  0.62802218  0.44751626  0.08736967     0.17900
H1281       H  0.57806271  0.46914039  0.06972639     0.14200
H1282       H  0.71396384  0.47806018  0.02815154     0.14100
H1283       H  0.61107256  0.51875406  0.00935960     0.32200
H1284       H  0.67909597  0.42918953  0.08833516     0.35000
C1285       C  0.63173169  0.49834164  0.94858323     0.20600
C1286       C  0.65880344  0.49885047  0.95662202    -0.39300
C1287       C  0.67431329  0.51940490  0.94618293     0.19600
C1288       C  0.66356358  0.53763818  0.92878055     0.22200
C1289       C  0.63676812  0.53681020  0.92031877    -0.39800
C1290       C  0.62125434  0.51650676  0.93092801     0.21000
N1291       N  0.61205666  0.48342800  0.95875036    -0.33100
C1292       C  0.58887150  0.49239148  0.94776758    -0.10600
C1293       C  0.59391990  0.51268153  0.92986724    -0.29400
N1294       N  0.68190797  0.55562384  0.92222516    -0.46000
C1295       C  0.70469749  0.54905132  0.93543099    -0.05300
C1296       C  0.70079019  0.52649914  0.95074392    -0.22700
H1297       H  0.66684418  0.48501618  0.97090452     0.19100
H1298       H  0.62832222  0.55162855  0.90734492     0.17900
H1299       H  0.57934613  0.52503168  0.91996191     0.14200
H1300       H  0.71525517  0.51665091  0.96335449     0.14100
H1301       H  0.61407664  0.46968322  0.97399744     0.32200
H1302       H  0.67900306  0.57151994  0.90938240     0.35000
C1303       C  0.51896939  0.60903448  0.05037894     0.20600
C1304       C  0.53913501  0.62232823  0.06431481    -0.39300
C1305       C  0.53953655  0.64951123  0.06103760     0.19600
C1306       C  0.52135173  0.66267397  0.04502331     0.22200
C1307       C  0.50070705  0.64936762  0.03144300    -0.39800
C1308       C  0.50016315  0.62201589  0.03488454     0.21000
N1309       N  0.51653407  0.58302827  0.04770492    -0.33100
C1310       C  0.49597235  0.57925402  0.03048086    -0.10600
C1311       C  0.48490054  0.60307769  0.02235167    -0.29400
N1312       N  0.52699794  0.68850434  0.04447293    -0.46000
C1313       C  0.54880458  0.69157453  0.06045226    -0.05300
C1314       C  0.55708131  0.66769717  0.07107689    -0.22700
H1315       H  0.55410561  0.61213652  0.07603417     0.19100
H1316       H  0.48672396  0.65940966  0.01844985     0.17900
H1317       H  0.46975763  0.60614606  0.00716218     0.14200
H1318       H  0.57394689  0.66408605  0.08420833     0.14100
H1319       H  0.52920708  0.56877819  0.05576207     0.32200
H1320       H  0.51667437  0.70305783  0.03402769     0.35000
C1321       C  0.46271251  0.65407754  0.92133926     0.20600
C1322       C  0.46231693  0.62714668  0.91615954    -0.39300
C1323       C  0.48149230  0.61222993  0.92973440     0.19600
C1324       C  0.49986454  0.62325524  0.94714758     0.22200
C1325       C  0.50018885  0.65037349  0.95246398    -0.39800
C1326       C  0.48079786  0.66540458  0.93884209     0.21000
N1327       N  0.44618187  0.67210800  0.91103491    -0.33100
C1328       C  0.45341783  0.69533266  0.92195579    -0.10600
C1329       C  0.47503719  0.69199967  0.93952514    -0.29400
N1330       N  0.51485095  0.60443626  0.95869289    -0.46000
C1331       C  0.50567571  0.58137063  0.94871308    -0.05300
C1332       C  0.48491450  0.58551379  0.93057499    -0.22700
H1333       H  0.44772010  0.61835579  0.90288540     0.19100
H1334       H  0.51409449  0.65900677  0.96654703     0.17900
H1335       H  0.48512340  0.70690640  0.95113980     0.14200
H1336       H  0.47284534  0.57084416  0.92060240     0.14100
H1337       H  0.43073343  0.66870508  0.89738441     0.32200
H1338       H  0.52928360  0.60699639  0.97362895     0.35000
C1339       C  0.34570126  0.52851966  0.06246614     0.20600
C1340       C  0.37321307  0.52756059  0.06827284    -0.39300
C1341       C  0.38812860  0.50952849  0.05354812     0.19600
C1342       C  0.37646755  0.49347248  0.03458595     0.22200
C1343       C  0.34874095  0.49408307  0.02912991    -0.39800
C1344       C  0.33381241  0.51244160  0.04367268     0.21000
N1345       N  0.32772877  0.54508988  0.07270834    -0.33100
C1346       C  0.30406614  0.53988388  0.06038711    -0.10600
C1347       C  0.30700652  0.51949155  0.04209084    -0.29400
N1348       N  0.39543397  0.48040325  0.02112981    -0.46000
C1349       C  0.41933488  0.48840062  0.03137310    -0.05300
C1350       C  0.41549988  0.50632096  0.05191222    -0.22700
H1351       H  0.38253474  0.54079095  0.08236326     0.19100
H1352       H  0.33968901  0.48201395  0.01385116     0.17900
H1353       H  0.29179712  0.51128678  0.02911716     0.14200
H1354       H  0.43071524  0.51744959  0.06238856     0.14100
H1355       H  0.33151753  0.55947580  0.08702122     0.32200
H1356       H  0.39235188  0.46833780  0.00460217     0.35000
C1357       C  0.34111172  0.45223530  0.92092576     0.20600
C1358       C  0.36782011  0.45265821  0.91226671    -0.39300
C1359       C  0.38450872  0.47130133  0.92436864     0.19600
C1360       C  0.37521681  0.48827648  0.94362002     0.22200
C1361       C  0.34832533  0.48808446  0.95204076    -0.39800
C1362       C  0.33159910  0.46928217  0.93999531     0.21000
N1363       N  0.32179795  0.43558989  0.91321581    -0.33100
C1364       C  0.29960700  0.44181807  0.92734670    -0.10600
C1365       C  0.30490376  0.46288595  0.94433534    -0.29400
N1366       N  0.39564071  0.50210871  0.95410751    -0.46000
C1367       C  0.41814954  0.49373501  0.94165473    -0.05300
C1368       C  0.41191290  0.47473423  0.92268988    -0.22700
H1369       H  0.37528961  0.43879710  0.89785170     0.19100
H1370       H  0.34121018  0.50099878  0.96749278     0.17900
H1371       H  0.29130498  0.47195509  0.95823319     0.14200
H1372       H  0.42578519  0.46325438  0.91108144     0.14100
H1373       H  0.32375256  0.42061073  0.89922446     0.32200
H1374       H  0.39454933  0.51504500  0.97008779     0.35000
C1375       C  0.04869451  0.49860812  0.37487323     0.20600
C1376       C  0.04290499  0.49696494  0.34746575    -0.39300
C1377       C  0.05998036  0.48085895  0.33257748     0.19600
C1378       C  0.08123705  0.46769373  0.34422135     0.22200
C1379       C  0.08728065  0.46969039  0.37142288    -0.39800
C1380       C  0.07013250  0.48552911  0.38629827     0.21000
N1381       N  0.03373901  0.50995884  0.39377343    -0.33100
C1382       C  0.04555600  0.50378920  0.41737286    -0.10600
C1383       C  0.06848910  0.48880122  0.41346247    -0.29400
N1384       N  0.09349244  0.45244323  0.32640467    -0.46000
C1385       C  0.08002972  0.45566805  0.30312984    -0.05300
C1386       C  0.05899713  0.47341824  0.30609141    -0.22700
H1387       H  0.02563441  0.50647468  0.33866070     0.19100
H1388       H  0.10340601  0.45868794  0.38056334     0.17900
H1389       H  0.08089504  0.47961968  0.42853820     0.14200
H1390       H  0.04455085  0.47945020  0.29116537     0.14100
H1391       H  0.01556153  0.51968575  0.39090382     0.32200
H1392       H  0.10980881  0.44014329  0.33005569     0.35000
C1393       C  0.93294063  0.52037805  0.32967636     0.20600
C1394       C  0.94925406  0.50192380  0.34283158    -0.39300
C1395       C  0.94603768  0.50021265  0.37064441     0.19600
C1396       C  0.92796056  0.51569067  0.38422261     0.22200
C1397       C  0.91133437  0.53364394  0.37103967    -0.39800
C1398       C  0.91461311  0.53540563  0.34340323     0.21000
N1399       N  0.93322173  0.52713125  0.30366549    -0.33100
C1400       C  0.91496610  0.54665873  0.30101359    -0.10600
C1401       C  0.90294318  0.55215711  0.32537179    -0.29400
N1402       N  0.93097112  0.51288682  0.41068896    -0.46000
C1403       C  0.95120187  0.49556922  0.41420629    -0.05300
C1404       C  0.96084644  0.48692645  0.38963686    -0.22700
H1405       H  0.96419730  0.49062992  0.33240260     0.19100
H1406       H  0.89774470  0.54628323  0.38169801     0.17900
H1407       H  0.88811011  0.56700456  0.32950072     0.14200
H1408       H  0.97809778  0.47462047  0.38616830     0.14100
H1409       H  0.94537512  0.51931310  0.28881066     0.32200
H1410       H  0.92109467  0.52350747  0.42543123     0.35000
C1411       C  0.06760310  0.53286414  0.65716946     0.20600
C1412       C  0.07455853  0.53171562  0.63017217    -0.39300
C1413       C  0.05973296  0.51408745  0.61462920     0.19600
C1414       C  0.03964985  0.49862101  0.62529218     0.22200
C1415       C  0.03295050  0.49949774  0.65245338    -0.39800
C1416       C  0.04762072  0.51738150  0.66797242     0.21000
N1417       N  0.07787602  0.54897161  0.67561509    -0.33100
C1418       C  0.06439385  0.54392665  0.69844415    -0.10600
C1419       C  0.04527936  0.52426785  0.69451008    -0.29400
N1420       N  0.02638709  0.48592740  0.60587743    -0.46000
C1421       C  0.03777910  0.49365360  0.58264032    -0.05300
C1422       C  0.05895223  0.51093722  0.58735839    -0.22700
H1423       H  0.08960079  0.54449031  0.62166177     0.19100
H1424       H  0.01667959  0.48801182  0.66061169     0.17900
H1425       H  0.03139827  0.51635188  0.70893924     0.14200
H1426       H  0.07036604  0.52177844  0.57273385     0.14100
H1427       H  0.09302884  0.56280274  0.67271554     0.32200
H1428       H  0.00923300  0.47444029  0.60818687     0.35000
C1429       C  0.92921070  0.47716854  0.61448231     0.20600
C1430       C  0.91629843  0.45736884  0.62901943    -0.39300
C1431       C  0.92232797  0.45632166  0.65631672     0.19600
C1432       C  0.93971727  0.47378207  0.66845559     0.22200
C1433       C  0.95227190  0.49398897  0.65398308    -0.39800
C1434       C  0.94638211  0.49492808  0.62651898     0.21000
N1435       N  0.92943266  0.48003465  0.58784120    -0.33100
C1436       C  0.94704074  0.49962158  0.58264055    -0.10600
C1437       C  0.95770939  0.50966993  0.60636125    -0.29400
N1438       N  0.94299725  0.46769290  0.69444745    -0.46000
C1439       C  0.92758827  0.44614310  0.69876831    -0.05300
C1440       C  0.91441169  0.43860390  0.67541544    -0.22700
H1441       H  0.90346285  0.44301556  0.61952789     0.19100
H1442       H  0.96647008  0.50727295  0.66317386     0.17900
H1443       H  0.97361595  0.52397882  0.60842343     0.14200
H1444       H  0.90111372  0.42204769  0.67266402     0.14100
H1445       H  0.91970403  0.46807413  0.57397720     0.32200
H1446       H  0.95513096  0.47739723  0.70826397     0.35000
C1447       C  0.04352730  0.36611534  0.52116928     0.20600
C1448       C  0.03798218  0.33916130  0.51968069    -0.39300
C1449       C  0.05041925  0.32348466  0.53906531     0.19600
C1450       C  0.06729425  0.33396505  0.55821795     0.22200
C1451       C  0.07310700  0.36086760  0.55951833    -0.39800
C1452       C  0.06053151  0.37658433  0.54025271     0.21000
N1453       N  0.03151628  0.38527072  0.50731148    -0.33100
C1454       C  0.04078147  0.40810862  0.51753653    -0.10600
C1455       C  0.05911090  0.40356058  0.53805790    -0.29400
N1456       N  0.07608111  0.31517718  0.57475516    -0.46000
C1457       C  0.06472348  0.29248910  0.56624849    -0.05300
C1458       C  0.04847438  0.29687174  0.54398833    -0.22700
H1459       H  0.02409203  0.33116019  0.50519708     0.19100
H1460       H  0.08569059  0.36906322  0.57502493     0.17900
H1461       H  0.06792914  0.41788800  0.55132791     0.14200
H1462       H  0.03690495  0.28259379  0.53292053     0.14100
H1463       H  0.01633467  0.38299599  0.49306676     0.32200
H1464       H  0.08901772  0.31769771  0.59094533     0.35000
C1465       C  0.93727708  0.37764987  0.44862127     0.20600
C1466       C  0.93106609  0.36296258  0.42581144    -0.39300
C1467       C  0.93394420  0.33573137  0.42832069     0.19600
C1468       C  0.94261277  0.32392310  0.45163721     0.22200
C1469       C  0.94848936  0.33860262  0.47456795    -0.39800
C1470       C  0.94522795  0.36585333  0.47220696     0.21000
N1471       N  0.93956726  0.40385458  0.45032023    -0.33100
C1472       C  0.94873098  0.40885503  0.47524764    -0.10600
C1473       C  0.95225877  0.38563754  0.48953465    -0.29400
N1474       N  0.94408225  0.29773518  0.44868260    -0.46000
C1475       C  0.93598912  0.29286213  0.42335829    -0.05300
C1476       C  0.92959125  0.31611417  0.41008504    -0.22700
H1477       H  0.92521232  0.37211327  0.40721980     0.19100
H1478       H  0.95574482  0.32954784  0.49271562     0.17900
H1479       H  0.96190185  0.38340319  0.50875932     0.14200
H1480       H  0.92235241  0.31832072  0.38985067     0.14100
H1481       H  0.93722452  0.41731998  0.43480113     0.32200
H1482       H  0.94963182  0.28401935  0.46314749     0.35000
C1483       C  0.92120505  0.65636323  0.53813120     0.20600
C1484       C  0.91745956  0.62916789  0.53845893    -0.39300
C1485       C  0.93135872  0.61511477  0.51905315     0.19600
C1486       C  0.94768972  0.62717758  0.50049842     0.22200
C1487       C  0.95135115  0.65455841  0.50008182    -0.39800
C1488       C  0.93752117  0.66868860  0.51974623     0.21000
N1489       N  0.91069571  0.67375866  0.55505433    -0.33100
C1490       C  0.92032805  0.69751900  0.54770456    -0.10600
C1491       C  0.93723278  0.69519248  0.52569039    -0.29400
N1492       N  0.96040951  0.60911311  0.48570421    -0.46000
C1493       C  0.95229006  0.58547903  0.49520468    -0.05300
C1494       C  0.93406914  0.58851004  0.51588182    -0.22700
H1495       H  0.90523314  0.61955483  0.55331288     0.19100
H1496       H  0.96464260  0.66404510  0.48607568     0.17900
H1497       H  0.94784878  0.71071364  0.51548173     0.14200
H1498       H  0.92549466  0.57328743  0.52823981     0.14100
H1499       H  0.89779476  0.66962297  0.57084763     0.32200
H1500       H  0.97503874  0.61262118  0.47132689     0.35000
C1501       C  0.04164461  0.62654384  0.49578091     0.20600
C1502       C  0.03699471  0.65373917  0.49408345    -0.39300
C1503       C  0.05197385  0.66741044  0.47476096     0.19600
C1504       C  0.07016484  0.65481353  0.45857030     0.22200
C1505       C  0.07486648  0.62779560  0.46032470    -0.39800
C1506       C  0.05990184  0.61419996  0.47944789     0.21000
N1507       N  0.02827944  0.60877149  0.51058007    -0.33100
C1508       C  0.03789566  0.58499323  0.50331468    -0.10600
C1509       C  0.05775526  0.58768162  0.48406792    -0.29400
N1510       N  0.08158309  0.67176212  0.44158051    -0.46000
C1511       C  0.07078748  0.69555194  0.44671983    -0.05300
C1512       C  0.05209730  0.69363765  0.46735809    -0.22700
H1513       H  0.02224119  0.66338294  0.50632669     0.19100
H1514       H  0.08865367  0.61793291  0.44718111     0.17900
H1515       H  0.06773887  0.57217991  0.47335822     0.14200
H1516       H  0.04028082  0.70925036  0.47580578     0.14100
H1517       H  0.01225853  0.61243939  0.52333327     0.32200
H1518       H  0.09600658  0.66732903  0.42727839     0.35000
C1519       C  0.50823403  0.05310066  0.62434886     0.20600
C1520       C  0.50771740  0.04563770  0.65130137    -0.39300
C1521       C  0.48650591  0.05572281  0.66633774     0.19600
C1522       C  0.46758583  0.07236029  0.65537819     0.22200
C1523       C  0.46833301  0.08016463  0.62855682    -0.39800
C1524       C  0.48934449  0.06981635  0.61344291     0.21000
N1525       N  0.52394905  0.04322544  0.60523788    -0.33100
C1526       C  0.51487074  0.05338497  0.58189087    -0.10600
C1527       C  0.49357515  0.07049133  0.58629726    -0.29400
N1528       N  0.44912058  0.07877187  0.67353855    -0.46000
C1529       C  0.45614540  0.06608202  0.69627653    -0.05300
C1530       C  0.47939248  0.05140531  0.69256616    -0.22700
H1531       H  0.52212457  0.03207715  0.65963285     0.19100
H1532       H  0.45301685  0.09250851  0.61983598     0.17900
H1533       H  0.48094523  0.07972474  0.57143980     0.14200
H1534       H  0.48966312  0.03926221  0.70703629     0.14100
H1535       H  0.53841038  0.02865334  0.60773172     0.32200
H1536       H  0.43262420  0.09101394  0.67057585     0.35000
C1537       C  0.52651030  0.94504545  0.62324994     0.20600
C1538       C  0.54340469  0.92818834  0.63756172    -0.39300
C1539       C  0.54661922  0.93382821  0.66467544     0.19600
C1540       C  0.53387011  0.95456310  0.67688763     0.22200
C1541       C  0.51638791  0.97113597  0.66266881    -0.39800
C1542       C  0.51326051  0.96556715  0.63535232     0.21000
N1543       N  0.52286240  0.94562422  0.59671572    -0.33100
C1544       C  0.50720124  0.96668986  0.59164172    -0.10600
C1545       C  0.50041065  0.97937007  0.61534492    -0.29400
N1546       N  0.54142178  0.95633892  0.70266954    -0.46000
C1547       C  0.55911983  0.93655490  0.70670684    -0.05300
C1548       C  0.56273446  0.92214076  0.68345799    -0.22700
H1549       H  0.55421753  0.91248559  0.62802102     0.19100
H1550       H  0.50668504  0.98764433  0.67196612     0.17900
H1551       H  0.48959460  0.99757284  0.61740856     0.14200
H1552       H  0.57577859  0.90550330  0.68056693     0.14100
H1553       H  0.53193688  0.93340364  0.58277119     0.32200
H1554       H  0.53517780  0.97024193  0.71651136     0.35000
C1555       C  0.33817793  0.08091154  0.46541249     0.20600
C1556       C  0.36508046  0.08917545  0.46791431    -0.39300
C1557       C  0.38334153  0.06997412  0.47659407     0.19600
C1558       C  0.37501594  0.04470065  0.48216505     0.22200
C1559       C  0.34815865  0.03683331  0.48086589    -0.39800
C1560       C  0.33006142  0.05586976  0.47225064     0.21000
N1561       N  0.31771697  0.09404862  0.45419009    -0.33100
C1562       C  0.29656548  0.07722568  0.45393972    -0.10600
C1563       C  0.30338127  0.05337705  0.46551858    -0.29400
N1564       N  0.39601508  0.02923883  0.48680161    -0.46000
C1565       C  0.41814620  0.04444465  0.48466538    -0.05300
C1566       C  0.41118294  0.07029023  0.47863934    -0.22700
H1567       H  0.37152375  0.10857015  0.46200489     0.19100
H1568       H  0.34205634  0.01683492  0.48472878     0.17900
H1569       H  0.29116688  0.03587988  0.46672363     0.14200
H1570       H  0.42455880  0.08652998  0.47470590     0.14100
H1571       H  0.31845515  0.11287017  0.44602597     0.32200
H1572       H  0.39534115  0.00912497  0.49054711     0.35000
C1573       C  0.38151914  0.93891947  0.53049553     0.20600
C1574       C  0.36287928  0.91819464  0.53028400    -0.39300
C1575       C  0.33657632  0.92477157  0.53786800     0.19600
C1576       C  0.32931547  0.95012471  0.54433997     0.22200
C1577       C  0.34781884  0.97063990  0.54458954    -0.39800
C1578       C  0.37404461  0.96390838  0.53793869     0.21000
N1579       N  0.40777277  0.93831748  0.52393856    -0.33100
C1580       C  0.41675934  0.96313653  0.52780798    -0.10600
C1581       C  0.39631768  0.97931738  0.53685008    -0.29400
N1582       N  0.30367980  0.95124621  0.55216198    -0.46000
C1583       C  0.29457375  0.92633653  0.55134824    -0.05300
C1584       C  0.31440438  0.90923625  0.54241587    -0.22700
H1585       H  0.36851998  0.89838688  0.52523945     0.19100
H1586       H  0.34236049  0.99033068  0.55029332     0.17900
H1587       H  0.39735801  0.00008325  0.54102077     0.14200
H1588       H  0.31315957  0.88814243  0.54086565     0.14100
H1589       H  0.41866260  0.92231958  0.51700981     0.32200
H1590       H  0.29353461  0.96766040  0.55924029     0.35000
C1591       C  0.51232867  0.03843983  0.37362959     0.20600
C1592       C  0.51321555  0.03170972  0.34645532    -0.39300
C1593       C  0.53051107  0.04685506  0.33057340     0.19600
C1594       C  0.54541187  0.06728142  0.34105254     0.22200
C1595       C  0.54419085  0.07426585  0.36801970    -0.39800
C1596       C  0.52721057  0.05899001  0.38390134     0.21000
N1597       N  0.50012178  0.02520444  0.39336223    -0.33100
C1598       C  0.50759442  0.03715209  0.41638263    -0.10600
C1599       C  0.52422151  0.05854337  0.41118835    -0.29400
N1600       N  0.56103807  0.07805817  0.32232942    -0.46000
C1601       C  0.55630253  0.06450192  0.29959282    -0.05300
C1602       C  0.53727874  0.04480711  0.30391213    -0.22700
H1603       H  0.50217357  0.01519462  0.33852350     0.19100
H1604       H  0.55647228  0.08977761  0.37626153     0.17900
H1605       H  0.53465171  0.07065153  0.42556301     0.14200
H1606       H  0.52965551  0.03079201  0.28962072     0.14100
H1607       H  0.48901796  0.00794202  0.39141257     0.32200
H1608       H  0.57433637  0.09368094  0.32497391     0.35000
C1609       C  0.46906793  0.91490414  0.35127761     0.20600
C1610       C  0.47058988  0.90925704  0.37864176    -0.39300
C1611       C  0.48879897  0.92440604  0.39344020     0.19600
C1612       C  0.50446729  0.94359844  0.38177468     0.22200
C1613       C  0.50311870  0.94910476  0.35430866    -0.39800
C1614       C  0.48467620  0.93408856  0.33952837     0.21000
N1615       N  0.45265506  0.90383116  0.33324076    -0.33100
C1616       C  0.45759779  0.91600041  0.30971433    -0.10600
C1617       C  0.47750606  0.93508798  0.31284695    -0.29400
N1618       N  0.51816924  0.95693986  0.40047660    -0.46000
C1619       C  0.51093309  0.94648506  0.42428588    -0.05300
C1620       C  0.49284660  0.92589965  0.42064000    -0.22700
H1621       H  0.45781588  0.89474199  0.38789620     0.19100
H1622       H  0.51483434  0.96459848  0.34530874     0.17900
H1623       H  0.48552721  0.94800282  0.29773353     0.14200
H1624       H  0.48233486  0.91503218  0.43589671     0.14100
H1625       H  0.43871803  0.88893780  0.33681835     0.32200
H1626       H  0.53023327  0.97339645  0.39732698     0.35000
C1627       C  0.68644995  0.04746052  0.52516212     0.20600
C1628       C  0.67335761  0.03388248  0.50446380    -0.39300
C1629       C  0.64577970  0.03899332  0.50154030     0.19600
C1630       C  0.63247790  0.05620577  0.51810306     0.22200
C1631       C  0.64562195  0.07012166  0.53825044    -0.39800
C1632       C  0.67296865  0.06503975  0.54112851     0.21000
N1633       N  0.71214476  0.04514013  0.53322538    -0.33100
C1634       C  0.71477576  0.06141669  0.55442340    -0.10600
C1635       C  0.69078615  0.07416086  0.55979460    -0.29400
N1636       N  0.60596264  0.05507836  0.51399489    -0.46000
C1637       C  0.60208246  0.03705685  0.49466861    -0.05300
C1638       C  0.62648209  0.02684316  0.48599452    -0.22700
H1639       H  0.68358142  0.01960678  0.49232960     0.19100
H1640       H  0.63502881  0.08302229  0.55160664     0.17900
H1641       H  0.68674829  0.08786687  0.57566830     0.14200
H1642       H  0.62943466  0.01064223  0.47248565     0.14100
H1643       H  0.72682348  0.03307997  0.52504905     0.32200
H1644       H  0.59127341  0.06461034  0.52503894     0.35000
C1645       C  0.62854689  0.93681754  0.48903604     0.20600
C1646       C  0.64101559  0.92213441  0.46920273    -0.39300
C1647       C  0.66852439  0.92641027  0.46625348     0.19600
C1648       C  0.68280730  0.94390210  0.48185650     0.22200
C1649       C  0.67043113  0.95807612  0.50237127    -0.39800
C1650       C  0.64272135  0.95379095  0.50536803     0.21000
N1651       N  0.60208214  0.93916748  0.49284623    -0.33100
C1652       C  0.59920518  0.95770945  0.51178483    -0.10600
C1653       C  0.62411190  0.96695423  0.52051494    -0.29400
N1654       N  0.70840829  0.94569636  0.47349700    -0.46000
C1655       C  0.71016420  0.92916339  0.45245268    -0.05300
C1656       C  0.68572670  0.91677575  0.44754926    -0.22700
H1657       H  0.62982175  0.90942068  0.45597539     0.19100
H1658       H  0.68124258  0.97233020  0.51419964     0.17900
H1659       H  0.62790845  0.98330581  0.53368264     0.14200
H1660       H  0.68095004  0.90306262  0.43181728     0.14100
H1661       H  0.58686980  0.93013158  0.48181026     0.32200
H1662       H  0.72351116  0.95765389  0.48128545     0.35000
loop_ 
_geom_bond_atom_site_label_1 
_geom_bond_atom_site_label_2 
_geom_bond_distance 
_geom_bond_site_symmetry_2 
_ccdc_geom_bond_type 
O1            C9   1.291       .  A
O1          Co21   2.086   1_565  S
O2           C10   1.268       .  A
O2          Co22   1.981   1_565  S
O3           C11   1.270       .  A
O3          Co23   1.973       .  S
O4           C12   1.261       .  A
O4          Co24   1.978       .  S
O5           C11   1.280       .  A
O5          Co22   2.040   1_565  S
O6           C12   1.262       .  A
O6          Co21   2.006   1_565  S
O7           C10   1.272       .  A
O7          Co24   1.999       .  S
O8            C9   1.267       .  A
O8          Co23   1.912       .  S
C9         C1652   1.467       .  S
C10        C1580   1.473       .  S
C11        C1544   1.479       .  S
C12        C1619   1.478       .  S
O13          C26   1.270       .  A
O13         Co21   1.971       .  S
O14          C27   1.260       .  A
O14         Co22   1.970       .  S
O15          C28   1.289       .  A
O15         Co23   2.080   1_545  S
O16          C29   1.267       .  A
O16         Co24   1.989   1_545  S
O17          C29   1.269       .  A
O17         Co22   1.995       .  S
O18          C28   1.267       .  A
O18         Co21   1.920       .  S
O19          C26   1.281       .  A
O19         Co24   2.042   1_545  S
O20          C27   1.262       .  A
O20         Co23   2.004   1_545  S
Co21         O25   2.027       .  S
Co22         O25   2.042       .  S
Co23         O25   2.026   1_565  S
Co24         O25   2.047   1_565  S
C26        C1598   1.478       .  S
C27        C1526   1.475       .  S
C28        C1637   1.467       .  S
C29        C1565   1.471       .  S
O30          C38   1.290       .  A
O30         Co50   2.081   1_655  S
O31          C39   1.268       .  A
O31         Co51   1.994   1_655  S
O32          C40   1.271       .  A
O32         Co52   1.970       .  S
O33          C41   1.264       .  A
O33         Co53   1.979       .  S
O34          C40   1.281       .  A
O34         Co51   2.038   1_655  S
O35          C41   1.264       .  A
O35         Co50   2.010   1_655  S
O36          C39   1.272       .  A
O36         Co53   1.992       .  S
O37          C38   1.268       .  A
O37         Co52   1.923       .  S
C38        C1493   1.474       .  S
C39        C1472   1.467       .  S
C40        C1403   1.477       .  S
C41        C1436   1.481       .  S
O42          C55   1.271       .  A
O42         Co50   1.972       .  S
O43          C56   1.260       .  A
O43         Co51   1.975       .  S
O44          C57   1.288       .  A
O44         Co52   2.081   1_455  S
O45          C58   1.266       .  A
O45         Co53   1.994   1_455  S
O46          C58   1.268       .  A
O46         Co51   1.991       .  S
O47          C57   1.269       .  A
O47         Co50   1.930       .  S
O48          C55   1.279       .  A
O48         Co53   2.030   1_455  S
O49          C56   1.262       .  A
O49         Co52   2.007   1_455  S
Co50         O54   2.031   1_455  S
Co51         O54   2.036   1_455  S
Co52         O54   2.031       .  S
Co53         O54   2.047       .  S
C55        C1421   1.473       .  S
C56        C1382   1.472       .  S
C57        C1508   1.476       .  S
C58        C1454   1.464       .  S
O59          C67   1.269       .  A
O59         Co79   1.969   1_554  S
O60          C68   1.263       .  A
O60         Co80   1.980       .  S
O61          C69   1.265   1_556  A
O61         Co81   1.985       .  S
O62          C70   1.290       .  A
O62         Co82   2.088   1_554  S
O63          C69   1.268       .  A
O63         Co80   1.992       .  S
O64          C70   1.265       .  A
O64         Co79   1.912   1_554  S
O65          C68   1.262       .  A
O65         Co82   2.005   1_554  S
O66          C67   1.279   1_556  A
O66         Co81   2.038       .  S
C67        C1349   1.477       .  S
C68        C1274   1.476       .  S
C69        C1241   1.467       .  S
C70        C1310   1.466       .  S
O71          C84   1.291       .  A
O71         Co79   2.085       .  S
O72          C85   1.270       .  A
O72         Co80   1.997   1_556  S
O73          C86   1.260       .  A
O73         Co81   1.975       .  S
O74          C87   1.271       .  A
O74         Co82   1.973       .  S
O75          C87   1.277       .  A
O75         Co80   2.024   1_556  S
O76          C86   1.260       .  A
O76         Co79   2.002       .  S
O77          C84   1.267       .  A
O77         Co82   1.919       .  S
O78          C85   1.271       .  A
O78         Co81   1.985       .  S
Co79         O83   2.027       .  S
Co80         O83   2.043   1_554  S
Co81         O83   2.050       .  S
Co82         O83   2.030       .  S
C84        C1331   1.473       .  S
C85        C1259   1.465       .  S
C86        C1367   1.476       .  S
C87        C1292   1.473       .  S
C88        C1202   1.477       .  S
C88          N89   1.361       .  A
C88          N93   1.365       .  A
N89          C90   1.354       .  A
C90        C1220   1.472       .  S
C90          N91   1.354       .  A
N91          C92   1.358       .  A
C92        C1547   1.478       .  S
C92          N93   1.364       .  A
C94        C1166   1.461       .  S
C94          N95   1.357       .  A
C94          N99   1.358       .  A
N95          C96   1.355       .  A
C96        C1223   1.467       .  S
C96          N97   1.357       .  A
N97          C98   1.358       .  A
C98        C1184   1.469       .  S
C98          N99   1.357       .  A
C100       C1490   1.480       .  S
C100        N101   1.361       .  A
C100        N105   1.367       .  A
N101        C102   1.355       .  A
C102       C1187   1.468       .  S
C102        N103   1.353       .  A
N103        C104   1.355       .  A
C104       C1148   1.478       .  S
C104        N105   1.366       .  A
C106       C1130   1.477       .  S
C106        N107   1.369       .  A
C106        N111   1.356       .  A
N107        C108   1.369       .  A
C108       C1295   1.475       .  S
C108        N109   1.355       .  A
N109        C110   1.348       .  A
C110       C1169   1.459       .  S
C110        N111   1.349       .  A
C112       C1094   1.469       .  S
C112        N113   1.357       .  A
C112        N117   1.361       .  A
N113        C114   1.356       .  A
C114       C1076   1.467       .  S
C114        N115   1.355       .  A
N115        C116   1.357       .  A
C116       C1112   1.469       .  S
C116        N117   1.360       .  A
C118       C1364   1.483       .  S
C118        N119   1.356       .  A
C118        N123   1.369       .  A
N119        C120   1.352       .  A
C120       C1115   1.471       .  S
C120        N121   1.354       .  A
N121        C122   1.361       .  A
C122       C1061   1.486       .  S
C122        N123   1.370       .  A
C124       C1040   1.473       .  S
C124        N125   1.364       .  A
C124        N129   1.357       .  A
N125        C126   1.365       .  A
C126       C1529   1.476       .  S
C126        N127   1.359       .  A
N127        C128   1.354       .  A
C128       C1097   1.467       .  S
C128        N129   1.352       .  A
C130       C1025   1.481       .  S
C130        N131   1.367       .  A
C130        N135   1.359       .  A
N131        C132   1.368       .  A
C132       C1457   1.477       .  S
C132        N133   1.356       .  A
N133        C134   1.351       .  A
C134       C1079   1.466       .  S
C134        N135   1.353       .  A
O136        C144   1.295   1_545  A
O136       Co156   2.056       .  S
O137        C145   1.272       .  A
O137       Co157   1.978       .  S
O138        C146   1.271       .  A
O138       Co158   1.993       .  S
O139        C147   1.267       .  A
O139       Co159   2.017       .  S
O140        C146   1.265   1_554  A
O140       Co157   1.987       .  S
O141        C147   1.240   1_556  A
O141       Co156   1.924       .  S
O142        C145   1.286   1_545  A
O142       Co159   2.047       .  S
O143        C144   1.274       .  A
O143       Co158   1.908       .  S
C144       C1043   1.459       .  S
C145        C968   1.482       .  S
C146        C935   1.478       .  S
C147        C986   1.462       .  S
O148        C161   1.291   1_556  A
O148       Co156   2.038       .  S
O149        C162   1.262   1_554  A
O149       Co157   1.970       .  S
O150        C163   1.269   1_565  A
O150       Co158   2.026       .  S
O151        C164   1.263   1_545  A
O151       Co159   1.991       .  S
O152        C164   1.257       .  A
O152       Co157   1.980       .  S
O153        C163   1.238       .  A
O153       Co156   1.947       .  S
O154        C161   1.283       .  A
O154       Co159   1.923       .  S
O155        C162   1.268       .  A
O155       Co158   2.000       .  S
Co156       O160   2.083   1_546  S
Co157       O160   2.014       .  S
Co158       O160   1.978   1_556  S
Co159       O160   1.961   1_545  S
C161       C1007   1.463       .  S
C162        C917   1.456       .  S
C163       C1205   1.470   1_545  S
C164        C950   1.474   1_565  S
C165        C896   1.468       .  S
C165        N166   1.358       .  A
C165        N170   1.356       .  A
N166        C167   1.358       .  A
C167        C860   1.465       .  S
C167        N168   1.357       .  A
N168        C169   1.356       .  A
C169        C878   1.464       .  S
C169        N170   1.356       .  A
C171       C1328   1.481       .  S
C171        N172   1.359       .  A
C171        N176   1.368       .  A
N172        C173   1.353       .  A
C173        C899   1.466       .  S
C173        N174   1.350       .  A
N174        C175   1.356       .  A
C175        C932   1.476       .  S
C175        N176   1.368       .  A
C177        C842   1.475       .  S
C177        N178   1.359       .  A
C177        N182   1.363       .  A
N178        C179   1.356       .  A
C179        C881   1.463       .  S
C179        N180   1.353       .  A
N180        C181   1.353       .  A
C181       C1583   1.467       .  S
C181        N182   1.361       .  A
C183        C827   1.476       .  S
C183        N184   1.366       .  A
C183        N188   1.358       .  A
N184        C185   1.366       .  A
C185       C1418   1.476       .  S
C185        N186   1.357       .  A
N186        C187   1.352       .  A
C187        C863   1.466       .  S
C187        N188   1.352       .  A
C189        C788   1.466       .  S
C189        N190   1.356       .  A
C189        N194   1.357       .  A
N190        C191   1.356       .  A
C191        C806   1.468       .  S
C191        N192   1.357       .  A
N192        C193   1.359       .  A
C193        C773   1.466       .  S
C193        N194   1.359       .  A
C195       C1475   1.478       .  S
C195        N196   1.368       .  A
C195        N200   1.357       .  A
N196        C197   1.367       .  A
C197        C755   1.480       .  S
C197        N198   1.359       .  A
N198        C199   1.352       .  A
C199        C809   1.466       .  S
C199        N200   1.352       .  A
C201        C734   1.479       .  S
C201        N202   1.356       .  A
C201        N206   1.368       .  A
N202        C203   1.351       .  A
C203        C791   1.466       .  S
C203        N204   1.351       .  A
N204        C205   1.359       .  A
C205       C1277   1.479       .  S
C205        N206   1.369       .  A
C207        C953   1.476       .  S
C207        N208   1.354       .  A
C207        N212   1.366       .  A
N208        C209   1.350       .  A
C209        C770   1.465       .  S
C209        N210   1.354       .  A
N210        C211   1.360       .  A
C211       C1601   1.480       .  S
C211        N212   1.368       .  A
O213        C221   1.272   1_556  A
O213       Co233   1.977       .  S
O214        C222   1.262   1_554  A
O214       Co234   1.976       .  S
O215        C223   1.268       .  A
O215       Co235   1.997       .  S
O216        C224   1.292   1_455  A
O216       Co236   2.092       .  S
O217        C223   1.269   1_455  A
O217       Co234   1.988       .  S
O218        C224   1.265       .  A
O218       Co233   1.908       .  S
O219        C222   1.262       .  A
O219       Co236   2.006       .  S
O220        C221   1.277       .  A
O220       Co235   2.022       .  S
C221       C1133   1.474       .  S
C222        C719   1.479       .  S
C223        C683   1.463       .  S
C224        C824   1.467       .  S
O225        C238   1.291   1_655  A
O225       Co233   2.088       .  S
O226        C239   1.268       .  A
O226       Co234   1.993       .  S
O227        C240   1.263   1_554  A
O227       Co235   1.983       .  S
O228        C241   1.272   1_556  A
O228       Co236   1.979       .  S
O229        C241   1.280       .  A
O229       Co234   2.036       .  S
O230        C240   1.260       .  A
O230       Co233   1.995       .  S
O231        C238   1.267       .  A
O231       Co236   1.911       .  S
O232        C239   1.266       .  A
O232       Co235   1.977   1_455  S
Co233       O237   2.018   1_656  S
Co234       O237   2.043       .  S
Co235       O237   2.047   1_655  S
Co236       O237   2.030   1_556  S
C238        C665   1.467       .  S
C239        C698   1.456       .  S
C240        C737   1.476       .  S
C241       C1058   1.482   1_554  S
C242        C626   1.477       .  S
C242        N243   1.364       .  A
C242        N247   1.359       .  A
N243        C244   1.364       .  A
C244       C1562   1.473       .  S
C244        N245   1.354       .  A
N245        C246   1.353       .  A
C246        C647   1.465       .  S
C246        N247   1.355       .  A
C248        C644   1.463       .  S
C248        N249   1.357       .  A
C248        N253   1.356       .  A
N249        C250   1.358       .  A
C250        C608   1.465       .  S
C250        N251   1.358       .  A
N251        C252   1.357       .  A
C252        C590   1.466       .  S
C252        N253   1.355       .  A
C254        C701   1.471       .  S
C254        N255   1.364       .  A
C254        N259   1.354       .  A
N255        C256   1.366       .  A
C256       C1385   1.475       .  S
C256        N257   1.359       .  A
N257        C258   1.353       .  A
C258        C611   1.464       .  S
C258        N259   1.349       .  A
C260        C989   1.474       .  S
C260        N261   1.359       .  A
C260        N265   1.365       .  A
N261        C262   1.352       .  A
C262        C593   1.462       .  S
C262        N263   1.349       .  A
N263        C264   1.354       .  A
C264       C1238   1.469       .  S
C264        N265   1.365       .  A
C266        C572   1.472       .  S
C266        N267   1.358       .  A
C266        N271   1.358       .  A
N267        C268   1.358       .  A
C268        C539   1.467       .  S
C268        N269   1.358       .  A
N269        C270   1.358       .  A
C270        C554   1.472       .  S
C270        N271   1.359       .  A
C272       C1439   1.483       .  S
C272        N273   1.362       .  A
C272        N277   1.367       .  A
N273        C274   1.356       .  A
C274        C575   1.472       .  S
C274        N275   1.352       .  A
N275        C276   1.356       .  A
C276        C662   1.477       .  S
C276        N277   1.366       .  A
C278       C1004   1.478       .  S
C278        N279   1.368       .  A
C278        N283   1.362       .  A
N279        C280   1.366       .  A
C280       C1256   1.476       .  S
C280        N281   1.356       .  A
N281        C282   1.350       .  A
C282        C557   1.471       .  S
C282        N283   1.353       .  A
C284       C1634   1.473       .  S
C284        N285   1.360       .  A
C284        N289   1.363       .  A
N285        C286   1.354       .  A
C286        C536   1.465       .  S
C286        N287   1.351       .  A
N287        C288   1.356       .  A
C288        C518   1.470       .  S
C288        N289   1.363       .  A
C290        C500   1.470       .  S
C290        N291   1.358       .  A
C290        N295   1.361       .  A
N291        C292   1.355       .  A
C292        C482   1.467       .  S
C292        N293   1.356       .  A
N293        C294   1.357       .  A
C294        C464   1.470       .  S
C294        N295   1.361       .  A
C296       C1655   1.476       .  S
C296        N297   1.363       .  A
C296        N301   1.356       .  A
N297        C298   1.366       .  A
C298        C446   1.477       .  S
C298        N299   1.361       .  A
N299        C300   1.355       .  A
C300        C503   1.467       .  S
C300        N301   1.351       .  A
C302        C680   1.476       .  S
C302        N303   1.356       .  A
C302        N307   1.366       .  A
N303        C304   1.351       .  A
C304        C485   1.469       .  S
C304        N305   1.354       .  A
N305        C306   1.361       .  A
C306       C1400   1.480       .  S
C306        N307   1.367       .  A
C308        C914   1.472       .  S
C308        N309   1.364       .  A
C308        N313   1.358       .  A
N309        C310   1.364       .  A
C310       C1313   1.474       .  S
C310        N311   1.359       .  A
N311        C312   1.353       .  A
C312        C467   1.471       .  S
C312        N313   1.351       .  A
C314        C413   1.475       .  S
C314        N315   1.360       .  A
C314        N319   1.359       .  A
N315        C316   1.360       .  A
C316        C395   1.474       .  S
C316        N317   1.360       .  A
N317        C318   1.360       .  A
C318        C428   1.475       .  S
C318        N319   1.359       .  A
C320       C1616   1.483       .  S
C320        N321   1.361       .  A
C320        N325   1.368       .  A
N321        C322   1.357       .  A
C322        C431   1.475       .  S
C322        N323   1.354       .  A
N323        C324   1.359       .  A
C324        C971   1.484       .  S
C324        N325   1.366       .  A
C326        C377   1.481       .  S
C326        N327   1.356       .  A
C326        N331   1.367       .  A
N327        C328   1.352       .  A
C328        C410   1.475       .  S
C328        N329   1.356       .  A
N329        C330   1.363       .  A
C330       C1511   1.486       .  S
C330        N331   1.370       .  A
C332        C716   1.483       .  S
C332        N333   1.359       .  A
C332        N337   1.368       .  A
N333        C334   1.354       .  A
C334        C392   1.474       .  S
C334        N335   1.354       .  A
N335        C336   1.359       .  A
C336       C1346   1.482       .  S
C336        N337   1.368       .  A
O338        C346   1.266       .  A
O338       Co358   1.996       .  S
O339        C347   1.290   1_455  A
O339       Co359   2.090       .  S
O340        C348   1.258   1_565  A
O340       Co360   1.970       .  S
O341        C349   1.270   1_545  A
O341       Co361   1.967       .  S
O342        C348   1.265       .  A
O342       Co359   2.012       .  S
O343        C349   1.280       .  A
O343       Co358   2.024       .  S
O344        C347   1.265       .  A
O344       Co361   1.922       .  S
O345        C346   1.268   1_455  A
O345       Co360   1.993       .  S
C346       C1151   1.467       .  S
C347       C1022   1.475       .  S
C348        C845   1.472       .  S
C349        C521   1.466       .  S
O350        C363   1.261   1_565  A
O350       Co358   1.977       .  S
O351        C364   1.269   1_545  A
O351       Co359   1.966       .  S
O352        C365   1.270       .  A
O352       Co360   2.002       .  S
O353        C366   1.290   1_655  A
O353       Co361   2.084       .  S
O354        C366   1.270       .  A
O354       Co359   1.921       .  S
O355        C365   1.270       .  A
O355       Co358   1.985   1_455  S
O356        C363   1.261       .  A
O356       Co361   1.996       .  S
O357        C364   1.280       .  A
O357       Co360   2.038       .  S
Co358       O362   2.040   1_655  S
Co359       O362   2.033   1_545  S
Co360       O362   2.029       .  S
Co361       O362   2.019   1_645  S
C363        C449   1.472       .  S
C364        C629   1.474       .  S
C365        C374   1.467       .  S
C366        C752   1.472       .  S
C367        N373   1.347       .  A
C367        C372   1.385       .  A
C367        C368   1.402       .  A
C368        C369   1.404       .  A
C368        H379   1.082       .  S
C369        C378   1.373       .  A
C369        C370   1.384       .  A
C370        N376   1.351       .  A
C370        C371   1.407       .  A
C371        C372   1.409       .  A
C371        H380   1.082       .  S
C372        C375   1.378       .  A
N373        C374   1.354       .  A
N373        H383   1.044       .  S
C374        C375   1.396       .  A
C375        H381   1.083   1_455  S
N376        C377   1.358       .  A
N376        H384   1.045       .  S
C377        C378   1.397       .  A
C378        H382   1.083       .  S
C385        N391   1.345       .  A
C385        C390   1.384       .  A
C385        C386   1.405       .  A
C386        C387   1.405       .  A
C386        H397   1.082       .  S
C387        C396   1.380       .  A
C387        C388   1.385       .  A
C388        N394   1.344       .  A
C388        C389   1.404       .  A
C389        C390   1.403       .  A
C389        H398   1.082       .  S
C390        C393   1.378       .  A
N391        C392   1.357       .  A
N391        H401   1.044       .  S
C392        C393   1.395       .  A
C393        H399   1.082       .  S
N394        C395   1.355       .  A
N394        H402   1.045       .  S
C395        C396   1.396       .  A
C396        H400   1.082       .  S
C403        N409   1.347       .  A
C403        C408   1.384       .  A
C403        C404   1.406       .  A
C404        C405   1.406       .  A
C404        H415   1.082       .  S
C405        C414   1.381       .  A
C405        C406   1.384       .  A
C406        N412   1.344       .  A
C406        C407   1.403       .  A
C407        C408   1.403       .  A
C407        H416   1.082       .  S
C408        C411   1.376       .  A
N409        C410   1.357       .  A
N409        H419   1.045       .  S
C410        C411   1.396       .  A
C411        H417   1.083       .  S
N412        C413   1.356       .  A
N412        H420   1.045       .  S
C413        C414   1.397       .  A
C414        H418   1.082       .  S
C421        N427   1.344       .  A
C421        C426   1.384       .  A
C421        C422   1.405       .  A
C422        C423   1.403       .  A
C422        H433   1.082       .  S
C423        C432   1.381       .  A
C423        C424   1.384       .  A
C424        N430   1.344       .  A
C424        C425   1.406       .  A
C425        C426   1.404       .  A
C425        H434   1.082       .  S
C426        C429   1.382       .  A
N427        C428   1.356       .  A
N427        H437   1.045       .  S
C428        C429   1.397       .  A
C429        H435   1.082       .  S
N430        C431   1.357       .  A
N430        H438   1.045       .  S
C431        C432   1.395       .  A
C432        H436   1.082       .  S
C439        N445   1.346       .  A
C439        C444   1.384       .  A
C439        C440   1.403       .  A
C440        C441   1.404       .  A
C440        H451   1.082   1_565  S
C441        C450   1.375   1_565  A
C441        C442   1.385       .  A
C442        N448   1.346       .  A
C442        C443   1.404       .  A
C443        C444   1.404       .  A
C443        H452   1.082       .  S
C444        C447   1.376       .  A
N445        C446   1.356       .  A
N445        H455   1.046       .  S
C446        C447   1.397       .  A
C447        H453   1.083       .  S
N448        C449   1.356   1_565  A
N448        H456   1.045       .  S
C449        C450   1.397       .  A
C450        H454   1.083       .  S
C457        N463   1.342       .  A
C457        C462   1.385       .  A
C457        C458   1.403       .  A
C458        C459   1.401       .  A
C458        H469   1.082       .  S
C459        C468   1.378       .  A
C459        C460   1.384       .  A
C460        N466   1.343       .  A
C460        C461   1.405       .  A
C461        C462   1.403       .  A
C461        H470   1.082       .  S
C462        C465   1.381       .  A
N463        C464   1.355       .  A
N463        H473   1.045       .  S
C464        C465   1.395       .  A
C465        H471   1.082       .  S
N466        C467   1.356       .  A
N466        H474   1.045       .  S
C467        C468   1.394       .  A
C468        H472   1.082       .  S
C475        N481   1.344       .  A
C475        C480   1.385       .  A
C475        C476   1.405       .  A
C476        C477   1.404       .  A
C476        H487   1.082       .  S
C477        C486   1.380       .  A
C477        C478   1.385       .  A
C478        N484   1.341       .  A
C478        C479   1.401       .  A
C479        C480   1.400       .  A
C479        H488   1.082       .  S
C480        C483   1.376       .  A
N481        C482   1.356       .  A
N481        H491   1.045       .  S
C482        C483   1.393       .  A
C483        H489   1.082       .  S
N484        C485   1.354       .  A
N484        H492   1.045       .  S
C485        C486   1.396       .  A
C486        H490   1.082       .  S
C493        N499   1.345       .  A
C493        C498   1.385       .  A
C493        C494   1.403       .  A
C494        C495   1.403       .  A
C494        H505   1.082       .  S
C495        C504   1.376       .  A
C495        C496   1.385       .  A
C496        N502   1.344       .  A
C496        C497   1.401       .  A
C497        C498   1.402       .  A
C497        H506   1.082       .  S
C498        C501   1.375       .  A
N499        C500   1.356       .  A
N499        H509   1.044       .  S
C500        C501   1.394       .  A
C501        H507   1.082       .  S
N502        C503   1.354       .  A
N502        H510   1.044       .  S
C503        C504   1.395       .  A
C504        H508   1.083       .  S
C511        N517   1.346       .  A
C511        C516   1.385       .  A
C511        C512   1.402   1_545  A
C512        C513   1.403       .  A
C512        H523   1.083       .  S
C513        C522   1.374       .  A
C513        C514   1.386   1_565  A
C514        N520   1.343       .  A
C514        C515   1.400       .  A
C515        C516   1.400       .  A
C515        H524   1.083       .  S
C516        C519   1.372       .  A
N517        C518   1.355       .  A
N517        H527   1.044       .  S
C518        C519   1.395       .  A
C519        H525   1.083       .  S
N520        C521   1.354   1_545  A
N520        H528   1.045       .  S
C521        C522   1.396       .  A
C522        H526   1.083       .  S
C529        N535   1.341       .  A
C529        C534   1.385       .  A
C529        C530   1.401       .  A
C530        C531   1.400       .  A
C530        H541   1.082       .  S
C531        C540   1.376       .  A
C531        C532   1.385       .  A
C532        N538   1.343       .  A
C532        C533   1.404       .  A
C533        C534   1.403       .  A
C533        H542   1.082       .  S
C534        C537   1.379       .  A
N535        C536   1.354       .  A
N535        H545   1.045       .  S
C536        C537   1.394       .  A
C537        H543   1.082       .  S
N538        C539   1.355       .  A
N538        H546   1.045       .  S
C539        C540   1.393       .  A
C540        H544   1.082       .  S
C547        N553   1.342       .  A
C547        C552   1.385       .  A
C547        C548   1.402       .  A
C548        C549   1.401       .  A
C548        H559   1.082       .  S
C549        C558   1.375       .  A
C549        C550   1.385       .  A
C550        N556   1.345       .  A
C550        C551   1.405       .  A
C551        C552   1.404       .  A
C551        H560   1.082       .  S
C552        C555   1.380       .  A
N553        C554   1.355       .  A
N553        H563   1.045       .  S
C554        C555   1.396       .  A
C555        H561   1.082       .  S
N556        C557   1.356       .  A
N556        H564   1.045       .  S
C557        C558   1.394       .  A
C558        H562   1.083       .  S
C565        N571   1.344       .  A
C565        C570   1.385       .  A
C565        C566   1.403       .  A
C566        C567   1.403       .  A
C566        H577   1.082       .  S
C567        C576   1.377       .  A
C567        C568   1.385       .  A
C568        N574   1.345       .  A
C568        C569   1.404       .  A
C569        C570   1.404       .  A
C569        H578   1.082       .  S
C570        C573   1.378       .  A
N571        C572   1.355       .  A
N571        H581   1.045       .  S
C572        C573   1.396       .  A
C573        H579   1.082       .  S
N574        C575   1.355       .  A
N574        H582   1.045       .  S
C575        C576   1.396       .  A
C576        H580   1.083       .  S
C583        N589   1.340       .  A
C583        C588   1.385       .  A
C583        C584   1.401       .  A
C584        C585   1.399       .  A
C584        H595   1.082       .  S
C585        C594   1.376       .  A
C585        C586   1.385       .  A
C586        N592   1.341       .  A
C586        C587   1.402       .  A
C587        C588   1.401       .  A
C587        H596   1.082       .  S
C588        C591   1.378       .  A
N589        C590   1.354       .  A
N589        H599   1.045       .  S
C590        C591   1.395       .  A
C591        H597   1.082       .  S
N592        C593   1.355       .  A
N592        H600   1.045       .  S
C593        C594   1.392       .  A
C594        H598   1.082       .  S
C601        N607   1.343       .  A
C601        C606   1.385       .  A
C601        C602   1.403       .  A
C602        C603   1.402       .  A
C602        H613   1.082       .  S
C603        C612   1.379       .  A
C603        C604   1.385       .  A
C604        N610   1.340       .  A
C604        C605   1.400       .  A
C605        C606   1.399       .  A
C605        H614   1.082       .  S
C606        C609   1.374       .  A
N607        C608   1.355       .  A
N607        H617   1.045       .  S
C608        C609   1.393       .  A
C609        H615   1.082       .  S
N610        C611   1.354       .  A
N610        H618   1.045       .  S
C611        C612   1.394       .  A
C612        H616   1.082       .  S
C619        N625   1.342       .  A
C619        C624   1.384       .  A
C619        C620   1.403       .  A
C620        C621   1.402       .  A
C620        H631   1.082       .  S
C621        C630   1.378       .  A
C621        C622   1.384       .  A
C622        N628   1.345   1_545  A
C622        C623   1.407       .  A
C623        C624   1.406       .  A
C623        H632   1.082   1_545  S
C624        C627   1.384       .  A
N625        C626   1.356       .  A
N625        H635   1.045       .  S
C626        C627   1.398       .  A
C627        H633   1.082       .  S
N628        C629   1.358       .  A
N628        H636   1.045       .  S
C629        C630   1.395   1_565  A
C630        H634   1.083       .  S
C637        N643   1.343       .  A
C637        C642   1.385       .  A
C637        C638   1.404       .  A
C638        C639   1.403       .  A
C638        H649   1.082       .  S
C639        C648   1.379       .  A
C639        C640   1.385       .  A
C640        N646   1.339       .  A
C640        C641   1.399       .  A
C641        C642   1.398       .  A
C641        H650   1.082       .  S
C642        C645   1.373       .  A
N643        C644   1.355       .  A
N643        H653   1.045       .  S
C644        C645   1.391       .  A
C645        H651   1.083       .  S
N646        C647   1.354       .  A
N646        H654   1.045       .  S
C647        C648   1.395       .  A
C648        H652   1.082       .  S
C655        N661   1.338       .  A
C655        C660   1.384       .  A
C655        C656   1.400       .  A
C656        C657   1.398       .  A
C656        H667   1.083       .  S
C657        C666   1.375       .  A
C657        C658   1.384       .  A
C658        N664   1.346   1_655  A
C658        C659   1.409       .  A
C659        C660   1.408       .  A
C659        H668   1.082   1_655  S
C660        C663   1.388       .  A
N661        C662   1.355       .  A
N661        H671   1.046       .  S
C662        C663   1.399       .  A
C663        H669   1.082       .  S
N664        C665   1.358       .  A
N664        H672   1.045       .  S
C665        C666   1.392   1_455  A
C666        H670   1.083       .  S
C673        N679   1.349       .  A
C673        C678   1.384       .  A
C673        C674   1.404       .  A
C674        C675   1.406       .  A
C674        H685   1.082       .  S
C675        C684   1.377       .  A
C675        C676   1.386       .  A
C676        N682   1.346       .  A
C676        C677   1.402       .  A
C677        C678   1.403       .  A
C677        H686   1.082       .  S
C678        C681   1.373       .  A
N679        C680   1.356       .  A
N679        H689   1.044       .  S
C680        C681   1.396       .  A
C681        H687   1.083       .  S
N682        C683   1.354       .  A
N682        H690   1.045       .  S
C683        C684   1.395       .  A
C684        H688   1.083   1_655  S
C691        N697   1.340       .  A
C691        C696   1.385       .  A
C691        C692   1.406       .  A
C692        C693   1.403       .  A
C692        H703   1.083       .  S
C693        C702   1.385       .  A
C693        C694   1.384       .  A
C694        N700   1.337       .  A
C694        C695   1.401       .  A
C695        C696   1.398       .  A
C695        H704   1.082       .  S
C696        C699   1.379       .  A
N697        C698   1.356       .  A
N697        H707   1.045   1_455  S
C698        C699   1.390       .  A
C699        H705   1.083       .  S
N700        C701   1.355       .  A
N700        H708   1.046       .  S
C701        C702   1.396       .  A
C702        H706   1.082       .  S
C709        N715   1.341       .  A
C709        C714   1.383       .  A
C709        C710   1.404       .  A
C710        C711   1.402       .  A
C710        H721   1.082       .  S
C711        C720   1.381       .  A
C711        C712   1.383   1_554  A
C712        N718   1.346       .  A
C712        C713   1.411       .  A
C713        C714   1.408   1_556  A
C713        H722   1.082       .  S
C714        C717   1.389       .  A
N715        C716   1.357       .  A
N715        H725   1.046       .  S
C716        C717   1.400       .  A
C717        H723   1.082       .  S
N718        C719   1.360       .  A
N718        H726   1.045       .  S
C719        C720   1.395   1_556  A
C720        H724   1.082       .  S
C727        N733   1.350       .  A
C727        C732   1.384       .  A
C727        C728   1.406   1_554  A
C728        C729   1.408       .  A
C728        H739   1.082       .  S
C729        C738   1.377       .  A
C729        C730   1.385   1_556  A
C730        N736   1.347       .  A
C730        C731   1.402       .  A
C731        C732   1.403       .  A
C731        H740   1.082       .  S
C732        C735   1.372       .  A
N733        C734   1.357       .  A
N733        H743   1.044       .  S
C734        C735   1.397       .  A
C735        H741   1.083       .  S
N736        C737   1.355   1_554  A
N736        H744   1.044       .  S
C737        C738   1.399       .  A
C738        H742   1.083       .  S
C745        N751   1.342       .  A
C745        C750   1.385       .  A
C745        C746   1.400       .  A
C746        C747   1.400       .  A
C746        H757   1.083       .  S
C747        C756   1.371       .  A
C747        C748   1.384       .  A
C748        N754   1.351       .  A
C748        C749   1.410       .  A
C749        C750   1.410       .  A
C749        H758   1.082   1_655  S
C750        C753   1.385   1_655  A
N751        C752   1.354   1_655  A
N751        H761   1.044       .  S
C752        C753   1.399       .  A
C753        H759   1.082       .  S
N754        C755   1.359       .  A
N754        H762   1.044       .  S
C755        C756   1.395       .  A
C756        H760   1.083       .  S
C763        N769   1.341       .  A
C763        C768   1.385       .  A
C763        C764   1.402       .  A
C764        C765   1.400       .  A
C764        H775   1.082       .  S
C765        C774   1.376       .  A
C765        C766   1.385       .  A
C766        N772   1.342       .  A
C766        C767   1.403       .  A
C767        C768   1.402       .  A
C767        H776   1.082       .  S
C768        C771   1.379       .  A
N769        C770   1.355       .  A
N769        H779   1.045       .  S
C770        C771   1.393       .  A
C771        H777   1.082       .  S
N772        C773   1.355       .  A
N772        H780   1.045       .  S
C773        C774   1.394       .  A
C774        H778   1.082       .  S
C781        N787   1.344       .  A
C781        C786   1.385       .  A
C781        C782   1.405       .  A
C782        C783   1.404       .  A
C782        H793   1.082       .  S
C783        C792   1.380       .  A
C783        C784   1.385       .  A
C784        N790   1.339       .  A
C784        C785   1.399       .  A
C785        C786   1.398       .  A
C785        H794   1.082       .  S
C786        C789   1.373       .  A
N787        C788   1.356       .  A
N787        H797   1.045       .  S
C788        C789   1.392       .  A
C789        H795   1.083       .  S
N790        C791   1.353       .  A
N790        H798   1.045       .  S
C791        C792   1.396       .  A
C792        H796   1.082       .  S
C799        N805   1.344       .  A
C799        C804   1.385       .  A
C799        C800   1.404       .  A
C800        C801   1.404       .  A
C800        H811   1.082       .  S
C801        C810   1.379       .  A
C801        C802   1.385       .  A
C802        N808   1.341       .  A
C802        C803   1.400       .  A
C803        C804   1.399       .  A
C803        H812   1.082       .  S
C804        C807   1.374       .  A
N805        C806   1.356       .  A
N805        H815   1.046       .  S
C806        C807   1.393       .  A
C807        H813   1.083       .  S
N808        C809   1.353       .  A
N808        H816   1.045       .  S
C809        C810   1.395       .  A
C810        H814   1.082       .  S
C817        N823   1.345       .  A
C817        C822   1.385   1_655  A
C817        C818   1.408       .  A
C818        C819   1.406   1_655  A
C818        H829   1.082       .  S
C819        C828   1.386       .  A
C819        C820   1.384       .  A
C820        N826   1.339       .  A
C820        C821   1.401       .  A
C821        C822   1.398       .  A
C821        H830   1.083       .  S
C822        C825   1.376       .  A
N823        C824   1.357       .  A
N823        H833   1.045       .  S
C824        C825   1.392   1_655  A
C825        H831   1.083       .  S
N826        C827   1.355       .  A
N826        H834   1.045       .  S
C827        C828   1.398       .  A
C828        H832   1.082       .  S
C835        N841   1.343       .  A
C835        C840   1.384       .  A
C835        C836   1.404       .  A
C836        C837   1.403       .  A
C836        H847   1.082       .  S
C837        C846   1.379       .  A
C837        C838   1.385       .  A
C838        N844   1.344   1_565  A
C838        C839   1.405       .  A
C839        C840   1.403       .  A
C839        H848   1.082   1_565  S
C840        C843   1.380       .  A
N841        C842   1.357       .  A
N841        H851   1.045       .  S
C842        C843   1.396       .  A
C843        H849   1.082       .  S
N844        C845   1.356       .  A
N844        H852   1.046       .  S
C845        C846   1.396   1_545  A
C846        H850   1.083       .  S
C853        N859   1.343       .  A
C853        C858   1.385       .  A
C853        C854   1.403       .  A
C854        C855   1.402       .  A
C854        H865   1.082       .  S
C855        C864   1.377       .  A
C855        C856   1.385       .  A
C856        N862   1.341       .  A
C856        C857   1.401       .  A
C857        C858   1.400       .  A
C857        H866   1.082       .  S
C858        C861   1.375       .  A
N859        C860   1.355       .  A
N859        H869   1.045       .  S
C860        C861   1.393       .  A
C861        H867   1.082       .  S
N862        C863   1.354       .  A
N862        H870   1.045       .  S
C863        C864   1.395       .  A
C864        H868   1.082       .  S
C871        N877   1.340       .  A
C871        C876   1.385       .  A
C871        C872   1.399       .  A
C872        C873   1.399       .  A
C872        H883   1.083       .  S
C873        C882   1.372       .  A
C873        C874   1.385       .  A
C874        N880   1.344       .  A
C874        C875   1.403       .  A
C875        C876   1.402       .  A
C875        H884   1.082       .  S
C876        C879   1.377       .  A
N877        C878   1.354       .  A
N877        H887   1.044       .  S
C878        C879   1.394       .  A
C879        H885   1.082       .  S
N880        C881   1.354       .  A
N880        H888   1.043       .  S
C881        C882   1.393       .  A
C882        H886   1.083       .  S
C889        N895   1.342       .  A
C889        C894   1.385       .  A
C889        C890   1.402       .  A
C890        C891   1.401       .  A
C890        H901   1.082       .  S
C891        C900   1.377       .  A
C891        C892   1.385       .  A
C892        N898   1.342       .  A
C892        C893   1.402       .  A
C893        C894   1.402       .  A
C893        H902   1.082       .  S
C894        C897   1.376       .  A
N895        C896   1.354       .  A
N895        H905   1.047       .  S
C896        C897   1.395       .  A
C897        H903   1.083       .  S
N898        C899   1.355       .  A
N898        H906   1.044       .  S
C899        C900   1.393       .  A
C900        H904   1.082       .  S
C907        N913   1.336       .  A
C907        C912   1.385       .  A
C907        C908   1.397       .  A
C908        C909   1.395       .  A
C908        H919   1.083       .  S
C909        C918   1.371       .  A
C909        C910   1.385       .  A
C910        N916   1.343   1_554  A
C910        C911   1.407   1_554  A
C911        C912   1.406   1_556  A
C911        H920   1.082       .  S
C912        C915   1.385       .  A
N913        C914   1.354       .  A
N913        H923   1.044       .  S
C914        C915   1.398       .  A
C915        H921   1.082       .  S
N916        C917   1.355       .  A
N916        H924   1.047       .  S
C917        C918   1.390   1_556  A
C918        H922   1.083       .  S
C925        N931   1.341       .  A
C925        C930   1.383       .  A
C925        C926   1.406       .  A
C926        C927   1.403       .  A
C926        H937   1.082       .  S
C927        C936   1.387       .  A
C927        C928   1.384       .  A
C928        N934   1.338       .  A
C928        C929   1.407       .  A
C929        C930   1.403       .  A
C929        H938   1.082   1_556  S
C930        C933   1.386       .  A
N931        C932   1.358       .  A
N931        H941   1.040       .  S
C932        C933   1.396       .  A
C933        H939   1.082       .  S
N934        C935   1.357       .  A
N934        H942   1.057   1_556  S
C935        C936   1.397       .  A
C936        H940   1.082       .  S
C943        N949   1.342   1_545  A
C943        C948   1.383       .  A
C943        C944   1.409       .  A
C944        C945   1.405       .  A
C944        H955   1.082   1_545  S
C945        C954   1.387       .  A
C945        C946   1.384       .  A
C946        N952   1.339       .  A
C946        C947   1.403       .  A
C947        C948   1.400       .  A
C947        H956   1.082       .  S
C948        C951   1.382       .  A
N949        C950   1.360   1_565  A
N949        H959   1.046       .  S
C950        C951   1.393       .  A
C951        H957   1.082       .  S
N952        C953   1.356       .  A
N952        H960   1.046       .  S
C953        C954   1.397       .  A
C954        H958   1.082       .  S
C961        N967   1.344       .  A
C961        C966   1.384       .  A
C961        C962   1.403       .  A
C962        C963   1.402       .  A
C962        H973   1.083       .  S
C963        C972   1.375       .  A
C963        C964   1.383       .  A
C964        N970   1.352       .  A
C964        C965   1.411       .  A
C965        C966   1.412       .  A
C965        H974   1.082       .  S
C966        C969   1.388       .  A
N967        C968   1.357       .  A
N967        H977   1.045       .  S
C968        C969   1.400       .  A
C969        H975   1.082   1_565  S
N970        C971   1.360       .  A
N970        H978   1.044       .  S
C971        C972   1.396       .  A
C972        H976   1.083       .  S
C979        N985   1.344       .  A
C979        C984   1.387       .  A
C979        C980   1.395       .  A
C980        C981   1.398       .  A
C980        H991   1.082       .  S
C981        C990   1.368       .  A
C981        C982   1.385       .  A
C982        N988   1.349       .  A
C982        C983   1.405       .  A
C983        C984   1.407       .  A
C983        H992   1.083   1_554  S
C984        C987   1.373   1_554  A
N985        C986   1.348       .  A
N985        H995   1.044       .  S
C986        C987   1.400   1_554  A
C987        H993   1.083       .  S
N988        C989   1.358       .  A
N988        H996   1.045       .  S
C989        C990   1.393       .  A
C990        H994   1.083       .  S
C997       N1003   1.350       .  A
C997       C1002   1.384       .  A
C997        C998   1.410       .  A
C998        C999   1.408       .  A
C998       H1009   1.082   1_556  S
C999       C1008   1.386   1_556  A
C999       C1000   1.384       .  A
C1000      N1006   1.336       .  A
C1000      C1001   1.398       .  A
C1001      C1002   1.397       .  A
C1001      H1010   1.083       .  S
C1002      C1005   1.371       .  A
N1003      C1004   1.359       .  A
N1003      H1013   1.044       .  S
C1004      C1005   1.394       .  A
C1005      H1011   1.083       .  S
N1006      C1007   1.355   1_556  A
N1006      H1014   1.046       .  S
C1007      C1008   1.396       .  A
C1008      H1012   1.082       .  S
C1015      N1021   1.344       .  A
C1015      C1020   1.385       .  A
C1015      C1016   1.401       .  A
C1016      C1017   1.401       .  A
C1016      H1027   1.082       .  S
C1017      C1026   1.373       .  A
C1017      C1018   1.384       .  A
C1018      N1024   1.351       .  A
C1018      C1019   1.410       .  A
C1019      C1020   1.411       .  A
C1019      H1028   1.082   1_455  S
C1020      C1023   1.385   1_455  A
N1021      C1022   1.354   1_455  A
N1021      H1031   1.045       .  S
C1022      C1023   1.400       .  A
C1023      H1029   1.083       .  S
N1024      C1025   1.359       .  A
N1024      H1032   1.045       .  S
C1025      C1026   1.395       .  A
C1026      H1030   1.083       .  S
C1033      N1039   1.337       .  A
C1033      C1038   1.385       .  A
C1033      C1034   1.397       .  A
C1034      C1035   1.395       .  A
C1034      H1045   1.083       .  S
C1035      C1044   1.368       .  A
C1035      C1036   1.385   1_545  A
C1036      N1042   1.346       .  A
C1036      C1037   1.407       .  A
C1037      C1038   1.408   1_565  A
C1037      H1046   1.082       .  S
C1038      C1041   1.385       .  A
N1039      C1040   1.354       .  A
N1039      H1049   1.046       .  S
C1040      C1041   1.399       .  A
C1041      H1047   1.082       .  S
N1042      C1043   1.356       .  A
N1042      H1050   1.045       .  S
C1043      C1044   1.390   1_565  A
C1044      H1048   1.083       .  S
C1051      N1057   1.348       .  A
C1051      C1056   1.384       .  A
C1051      C1052   1.405       .  A
C1052      C1053   1.406       .  A
C1052      H1063   1.082       .  S
C1053      C1062   1.377       .  A
C1053      C1054   1.384       .  A
C1054      N1060   1.352       .  A
C1054      C1055   1.408       .  A
C1055      C1056   1.410       .  A
C1055      H1064   1.082   1_556  S
C1056      C1059   1.381   1_556  A
N1057      C1058   1.357       .  A
N1057      H1067   1.045       .  S
C1058      C1059   1.400   1_556  A
C1059      H1065   1.083       .  S
N1060      C1061   1.359       .  A
N1060      H1068   1.044       .  S
C1061      C1062   1.398       .  A
C1062      H1066   1.083       .  S
C1069      N1075   1.341       .  A
C1069      C1074   1.385       .  A
C1069      C1070   1.401       .  A
C1070      C1071   1.400       .  A
C1070      H1081   1.082       .  S
C1071      C1080   1.375       .  A
C1071      C1072   1.385       .  A
C1072      N1078   1.343       .  A
C1072      C1073   1.403       .  A
C1073      C1074   1.402       .  A
C1073      H1082   1.082       .  S
C1074      C1077   1.377       .  A
N1075      C1076   1.354       .  A
N1075      H1085   1.045       .  S
C1076      C1077   1.394       .  A
C1077      H1083   1.082       .  S
N1078      C1079   1.355       .  A
N1078      H1086   1.045       .  S
C1079      C1080   1.394       .  A
C1080      H1084   1.083       .  S
C1087      N1093   1.341       .  A
C1087      C1092   1.385       .  A
C1087      C1088   1.402       .  A
C1088      C1089   1.401       .  A
C1088      H1099   1.082       .  S
C1089      C1098   1.377       .  A
C1089      C1090   1.385       .  A
C1090      N1096   1.343       .  A
C1090      C1091   1.404       .  A
C1091      C1092   1.402       .  A
C1091      H1100   1.082       .  S
C1092      C1095   1.379       .  A
N1093      C1094   1.355       .  A
N1093      H1103   1.045       .  S
C1094      C1095   1.395       .  A
C1095      H1101   1.082       .  S
N1096      C1097   1.355       .  A
N1096      H1104   1.044       .  S
C1097      C1098   1.393       .  A
C1098      H1102   1.082       .  S
C1105      N1111   1.345       .  A
C1105      C1110   1.385       .  A
C1105      C1106   1.403       .  A
C1106      C1107   1.403       .  A
C1106      H1117   1.082       .  S
C1107      C1116   1.377       .  A
C1107      C1108   1.385       .  A
C1108      N1114   1.344       .  A
C1108      C1109   1.402       .  A
C1109      C1110   1.402       .  A
C1109      H1118   1.082       .  S
C1110      C1113   1.376       .  A
N1111      C1112   1.355       .  A
N1111      H1121   1.045       .  S
C1112      C1113   1.394       .  A
C1113      H1119   1.082       .  S
N1114      C1115   1.355       .  A
N1114      H1122   1.045       .  S
C1115      C1116   1.396       .  A
C1116      H1120   1.082       .  S
C1123      N1129   1.351       .  A
C1123      C1128   1.384       .  A
C1123      C1124   1.406   1_556  A
C1124      C1125   1.409       .  A
C1124      H1135   1.082       .  S
C1125      C1134   1.378       .  A
C1125      C1126   1.385   1_554  A
C1126      N1132   1.345       .  A
C1126      C1127   1.400       .  A
C1127      C1128   1.401       .  A
C1127      H1136   1.083       .  S
C1128      C1131   1.369       .  A
N1129      C1130   1.357       .  A
N1129      H1139   1.044       .  S
C1130      C1131   1.395       .  A
C1131      H1137   1.083       .  S
N1132      C1133   1.354   1_556  A
N1132      H1140   1.046       .  S
C1133      C1134   1.400       .  A
C1134      H1138   1.083       .  S
C1141      N1147   1.348       .  A
C1141      C1146   1.384       .  A
C1141      C1142   1.403       .  A
C1142      C1143   1.405       .  A
C1142      H1153   1.083       .  S
C1143      C1152   1.375       .  A
C1143      C1144   1.385       .  A
C1144      N1150   1.349       .  A
C1144      C1145   1.404       .  A
C1145      C1146   1.405       .  A
C1145      H1154   1.082       .  S
C1146      C1149   1.376       .  A
N1147      C1148   1.356       .  A
N1147      H1157   1.045       .  S
C1148      C1149   1.398       .  A
C1149      H1155   1.083       .  S
N1150      C1151   1.355       .  A
N1150      H1158   1.044       .  S
C1151      C1152   1.394       .  A
C1152      H1156   1.082   1_655  S
C1159      N1165   1.341       .  A
C1159      C1164   1.385       .  A
C1159      C1160   1.400       .  A
C1160      C1161   1.399       .  A
C1160      H1171   1.082       .  S
C1161      C1170   1.374       .  A
C1161      C1162   1.386       .  A
C1162      N1168   1.340       .  A
C1162      C1163   1.400       .  A
C1163      C1164   1.399       .  A
C1163      H1172   1.082       .  S
C1164      C1167   1.374       .  A
N1165      C1166   1.354       .  A
N1165      H1175   1.045       .  S
C1166      C1167   1.393       .  A
C1167      H1173   1.082       .  S
N1168      C1169   1.353       .  A
N1168      H1176   1.045       .  S
C1169      C1170   1.392       .  A
C1170      H1174   1.083       .  S
C1177      N1183   1.340       .  A
C1177      C1182   1.385       .  A
C1177      C1178   1.400       .  A
C1178      C1179   1.399       .  A
C1178      H1189   1.082       .  S
C1179      C1188   1.373       .  A
C1179      C1180   1.385       .  A
C1180      N1186   1.345       .  A
C1180      C1181   1.405       .  A
C1181      C1182   1.405       .  A
C1181      H1190   1.082       .  S
C1182      C1185   1.380       .  A
N1183      C1184   1.353       .  A
N1183      H1193   1.045       .  S
C1184      C1185   1.397       .  A
C1185      H1191   1.082       .  S
N1186      C1187   1.356       .  A
N1186      H1194   1.045       .  S
C1187      C1188   1.393       .  A
C1188      H1192   1.083       .  S
C1195      N1201   1.337       .  A
C1195      C1200   1.384       .  A
C1195      C1196   1.397       .  A
C1196      C1197   1.394       .  A
C1196      H1207   1.082       .  S
C1197      C1206   1.374       .  A
C1197      C1198   1.384       .  A
C1198      N1204   1.347   1_565  A
C1198      C1199   1.414       .  A
C1199      C1200   1.411       .  A
C1199      H1208   1.083   1_565  S
C1200      C1203   1.389       .  A
N1201      C1202   1.353       .  A
N1201      H1211   1.046       .  S
C1202      C1203   1.401       .  A
C1203      H1209   1.082       .  S
N1204      C1205   1.365   1_545  A
N1204      H1212   1.045       .  S
C1205      C1206   1.384       .  A
C1206      H1210   1.082       .  S
C1213      N1219   1.345       .  A
C1213      C1218   1.385       .  A
C1213      C1214   1.405       .  A
C1214      C1215   1.404       .  A
C1214      H1225   1.082       .  S
C1215      C1224   1.379       .  A
C1215      C1216   1.385       .  A
C1216      N1222   1.341       .  A
C1216      C1217   1.400       .  A
C1217      C1218   1.400       .  A
C1217      H1226   1.082       .  S
C1218      C1221   1.375       .  A
N1219      C1220   1.357       .  A
N1219      H1229   1.045       .  S
C1220      C1221   1.394       .  A
C1221      H1227   1.082       .  S
N1222      C1223   1.353       .  A
N1222      H1230   1.045       .  S
C1223      C1224   1.396       .  A
C1224      H1228   1.082       .  S
C1231      N1237   1.339       .  A
C1231      C1236   1.384       .  A
C1231      C1232   1.407       .  A
C1232      C1233   1.402       .  A
C1232      H1243   1.082       .  S
C1233      C1242   1.389       .  A
C1233      C1234   1.384       .  A
C1234      N1240   1.334       .  A
C1234      C1235   1.403       .  A
C1235      C1236   1.398       .  A
C1235      H1244   1.083       .  S
C1236      C1239   1.382       .  A
N1237      C1238   1.357       .  A
N1237      H1247   1.046       .  S
C1238      C1239   1.393       .  A
C1239      H1245   1.082       .  S
N1240      C1241   1.355       .  A
N1240      H1248   1.042   1_554  S
C1241      C1242   1.395       .  A
C1242      H1246   1.082       .  S
C1249      N1255   1.352       .  A
C1249      C1254   1.384       .  A
C1249      C1250   1.410       .  A
C1250      C1251   1.411       .  A
C1250      H1261   1.082       .  S
C1251      C1260   1.383       .  A
C1251      C1252   1.385       .  A
C1252      N1258   1.342       .  A
C1252      C1253   1.398       .  A
C1253      C1254   1.398       .  A
C1253      H1262   1.083       .  S
C1254      C1257   1.369       .  A
N1255      C1256   1.359       .  A
N1255      H1265   1.045       .  S
C1256      C1257   1.393       .  A
C1257      H1263   1.083       .  S
N1258      C1259   1.352       .  A
N1258      H1266   1.045       .  S
C1259      C1260   1.399       .  A
C1260      H1264   1.082       .  S
C1267      N1273   1.346       .  A
C1267      C1272   1.384       .  A
C1267      C1268   1.410       .  A
C1268      C1269   1.408       .  A
C1268      H1279   1.082       .  S
C1269      C1278   1.389       .  A
C1269      C1270   1.384       .  A
C1270      N1276   1.338       .  A
C1270      C1271   1.402       .  A
C1271      C1272   1.399       .  A
C1271      H1280   1.083       .  S
C1272      C1275   1.379       .  A
N1273      C1274   1.360       .  A
N1273      H1283   1.044       .  S
C1274      C1275   1.393       .  A
C1275      H1281   1.082       .  S
N1276      C1277   1.356       .  A
N1276      H1284   1.045       .  S
C1277      C1278   1.399       .  A
C1278      H1282   1.082       .  S
C1285      N1291   1.344       .  A
C1285      C1290   1.384       .  A
C1285      C1286   1.408       .  A
C1286      C1287   1.405       .  A
C1286      H1297   1.082       .  S
C1287      C1296   1.387       .  A
C1287      C1288   1.383       .  A
C1288      N1294   1.337       .  A
C1288      C1289   1.402       .  A
C1289      C1290   1.399       .  A
C1289      H1298   1.083       .  S
C1290      C1293   1.379       .  A
N1291      C1292   1.359       .  A
N1291      H1301   1.042       .  S
C1292      C1293   1.394       .  A
C1293      H1299   1.083       .  S
N1294      C1295   1.356       .  A
N1294      H1302   1.046       .  S
C1295      C1296   1.398       .  A
C1296      H1300   1.082       .  S
C1303      N1309   1.341       .  A
C1303      C1308   1.386       .  A
C1303      C1304   1.399       .  A
C1304      C1305   1.398       .  A
C1304      H1315   1.083       .  S
C1305      C1314   1.370       .  A
C1305      C1306   1.384       .  A
C1306      N1312   1.349       .  A
C1306      C1307   1.407       .  A
C1307      C1308   1.408       .  A
C1307      H1316   1.082       .  S
C1308      C1311   1.381       .  A
N1309      C1310   1.353       .  A
N1309      H1319   1.045       .  S
C1310      C1311   1.397       .  A
C1311      H1317   1.083       .  S
N1312      C1313   1.358       .  A
N1312      H1320   1.044       .  S
C1313      C1314   1.393       .  A
C1314      H1318   1.083       .  S
C1321      N1327   1.340       .  A
C1321      C1326   1.384       .  A
C1321      C1322   1.401       .  A
C1322      C1323   1.399       .  A
C1322      H1333   1.083       .  S
C1323      C1332   1.377       .  A
C1323      C1324   1.384       .  A
C1324      N1330   1.348       .  A
C1324      C1325   1.412       .  A
C1325      C1326   1.410       .  A
C1325      H1334   1.082       .  S
C1326      C1329   1.390       .  A
N1327      C1328   1.356       .  A
N1327      H1337   1.044       .  S
C1328      C1329   1.401       .  A
C1329      H1335   1.082       .  S
N1330      C1331   1.359       .  A
N1330      H1338   1.046       .  S
C1331      C1332   1.392       .  A
C1332      H1336   1.083       .  S
C1339      N1345   1.341       .  A
C1339      C1344   1.383       .  A
C1339      C1340   1.403       .  A
C1340      C1341   1.401       .  A
C1340      H1351   1.082       .  S
C1341      C1350   1.379       .  A
C1341      C1342   1.384       .  A
C1342      N1348   1.346       .  A
C1342      C1343   1.410       .  A
C1343      C1344   1.408       .  A
C1343      H1352   1.082       .  S
C1344      C1347   1.388       .  A
N1345      C1346   1.357       .  A
N1345      H1355   1.046       .  S
C1346      C1347   1.400       .  A
C1347      H1353   1.082       .  S
N1348      C1349   1.359       .  A
N1348      H1356   1.046       .  S
C1349      C1350   1.395       .  A
C1350      H1354   1.083       .  S
C1357      N1363   1.340       .  A
C1357      C1362   1.383       .  A
C1357      C1358   1.405       .  A
C1358      C1359   1.401       .  A
C1358      H1369   1.082       .  S
C1359      C1368   1.382       .  A
C1359      C1360   1.383       .  A
C1360      N1366   1.345       .  A
C1360      C1361   1.409       .  A
C1361      C1362   1.407       .  A
C1361      H1370   1.082       .  S
C1362      C1365   1.389       .  A
N1363      C1364   1.358       .  A
N1363      H1373   1.045       .  S
C1364      C1365   1.399       .  A
C1365      H1371   1.082       .  S
N1366      C1367   1.359       .  A
N1366      H1374   1.043       .  S
C1367      C1368   1.395       .  A
C1368      H1372   1.082       .  S
C1375      N1381   1.344       .  A
C1375      C1380   1.384       .  A
C1375      C1376   1.408       .  A
C1376      C1377   1.406       .  A
C1376      H1387   1.083       .  S
C1377      C1386   1.385       .  A
C1377      C1378   1.384       .  A
C1378      N1384   1.339       .  A
C1378      C1379   1.402       .  A
C1379      C1380   1.400       .  A
C1379      H1388   1.082       .  S
C1380      C1383   1.378       .  A
N1381      C1382   1.358       .  A
N1381      H1391   1.045       .  S
C1382      C1383   1.394       .  A
C1383      H1389   1.082       .  S
N1384      C1385   1.355       .  A
N1384      H1392   1.045       .  S
C1385      C1386   1.398       .  A
C1386      H1390   1.082       .  S
C1393      N1399   1.351       .  A
C1393      C1398   1.384       .  A
C1393      C1394   1.408       .  A
C1394      C1395   1.410       .  A
C1394      H1405   1.082       .  S
C1395      C1404   1.382       .  A
C1395      C1396   1.385       .  A
C1396      N1402   1.345       .  A
C1396      C1397   1.401       .  A
C1397      C1398   1.401       .  A
C1397      H1406   1.082       .  S
C1398      C1401   1.373       .  A
N1399      C1400   1.359       .  A
N1399      H1409   1.045       .  S
C1400      C1401   1.395       .  A
C1401      H1407   1.083       .  S
N1402      C1403   1.355       .  A
N1402      H1410   1.046       .  S
C1403      C1404   1.400       .  A
C1404      H1408   1.083       .  S
C1411      N1417   1.340       .  A
C1411      C1416   1.384       .  A
C1411      C1412   1.403       .  A
C1412      C1413   1.401       .  A
C1412      H1423   1.083       .  S
C1413      C1422   1.380       .  A
C1413      C1414   1.384       .  A
C1414      N1420   1.343       .  A
C1414      C1415   1.407       .  A
C1415      C1416   1.405       .  A
C1415      H1424   1.082       .  S
C1416      C1419   1.385       .  A
N1417      C1418   1.357       .  A
N1417      H1427   1.044       .  S
C1418      C1419   1.397       .  A
C1419      H1425   1.082       .  S
N1420      C1421   1.358       .  A
N1420      H1428   1.044       .  S
C1421      C1422   1.395       .  A
C1422      H1426   1.082       .  S
C1429      N1435   1.346       .  A
C1429      C1434   1.384       .  A
C1429      C1430   1.403       .  A
C1430      C1431   1.403       .  A
C1430      H1441   1.082       .  S
C1431      C1440   1.376       .  A
C1431      C1432   1.384       .  A
C1432      N1438   1.351       .  A
C1432      C1433   1.409       .  A
C1433      C1434   1.410       .  A
C1433      H1442   1.082       .  S
C1434      C1437   1.383       .  A
N1435      C1436   1.356       .  A
N1435      H1445   1.045       .  S
C1436      C1437   1.401       .  A
C1437      H1443   1.083       .  S
N1438      C1439   1.359       .  A
N1438      H1446   1.044       .  S
C1439      C1440   1.396       .  A
C1440      H1444   1.083       .  S
C1447      N1453   1.341       .  A
C1447      C1452   1.385       .  A
C1447      C1448   1.406       .  A
C1448      C1449   1.403       .  A
C1448      H1459   1.083       .  S
C1449      C1458   1.385       .  A
C1449      C1450   1.383       .  A
C1450      N1456   1.341       .  A
C1450      C1451   1.406       .  A
C1451      C1452   1.403       .  A
C1451      H1460   1.082       .  S
C1452      C1455   1.384       .  A
N1453      C1454   1.355       .  A
N1453      H1463   1.046       .  S
C1454      C1455   1.394       .  A
C1455      H1461   1.082       .  S
N1456      C1457   1.358       .  A
N1456      H1464   1.044       .  S
C1457      C1458   1.396       .  A
C1458      H1462   1.082       .  S
C1465      N1471   1.346       .  A
C1465      C1470   1.385       .  A
C1465      C1466   1.404       .  A
C1466      C1467   1.404       .  A
C1466      H1477   1.082       .  S
C1467      C1476   1.376       .  A
C1467      C1468   1.384       .  A
C1468      N1474   1.349       .  A
C1468      C1469   1.405       .  A
C1469      C1470   1.407       .  A
C1469      H1478   1.082       .  S
C1470      C1473   1.379       .  A
N1471      C1472   1.356       .  A
N1471      H1481   1.045       .  S
C1472      C1473   1.396       .  A
C1473      H1479   1.083       .  S
N1474      C1475   1.356       .  A
N1474      H1482   1.045       .  S
C1475      C1476   1.398       .  A
C1476      H1480   1.083       .  S
C1483      N1489   1.341       .  A
C1483      C1488   1.384       .  A
C1483      C1484   1.402       .  A
C1484      C1485   1.400       .  A
C1484      H1495   1.082       .  S
C1485      C1494   1.376       .  A
C1485      C1486   1.384       .  A
C1486      N1492   1.349       .  A
C1486      C1487   1.410       .  A
C1487      C1488   1.410       .  A
C1487      H1496   1.082       .  S
C1488      C1491   1.388       .  A
N1489      C1490   1.356       .  A
N1489      H1499   1.045       .  S
C1490      C1491   1.400       .  A
C1491      H1497   1.082       .  S
N1492      C1493   1.359       .  A
N1492      H1500   1.045       .  S
C1493      C1494   1.393       .  A
C1494      H1498   1.083       .  S
C1501      N1507   1.349       .  A
C1501      C1506   1.384       .  A
C1501      C1502   1.412       .  A
C1502      C1503   1.411       .  A
C1502      H1513   1.082       .  S
C1503      C1512   1.390       .  A
C1503      C1504   1.383       .  A
C1504      N1510   1.342       .  A
C1504      C1505   1.403       .  A
C1505      C1506   1.402       .  A
C1505      H1514   1.082       .  S
C1506      C1509   1.378       .  A
N1507      C1508   1.359       .  A
N1507      H1517   1.045       .  S
C1508      C1509   1.395       .  A
C1509      H1515   1.083       .  S
N1510      C1511   1.357       .  A
N1510      H1518   1.045       .  S
C1511      C1512   1.401       .  A
C1512      H1516   1.082       .  S
C1519      N1525   1.343       .  A
C1519      C1524   1.384       .  A
C1519      C1520   1.406       .  A
C1520      C1521   1.404       .  A
C1520      H1531   1.082       .  S
C1521      C1530   1.383       .  A
C1521      C1522   1.383       .  A
C1522      N1528   1.342       .  A
C1522      C1523   1.405       .  A
C1523      C1524   1.403       .  A
C1523      H1532   1.082       .  S
C1524      C1527   1.381       .  A
N1525      C1526   1.357       .  A
N1525      H1535   1.045       .  S
C1526      C1527   1.397       .  A
C1527      H1533   1.082       .  S
N1528      C1529   1.357       .  A
N1528      H1536   1.045       .  S
C1529      C1530   1.397       .  A
C1530      H1534   1.082       .  S
C1537      N1543   1.345       .  A
C1537      C1542   1.385       .  A
C1537      C1538   1.401       .  A
C1538      C1539   1.401       .  A
C1538      H1549   1.082       .  S
C1539      C1548   1.373       .  A
C1539      C1540   1.384       .  A
C1540      N1546   1.350       .  A
C1540      C1541   1.408       .  A
C1541      C1542   1.410       .  A
C1541      H1550   1.082       .  S
C1542      C1545   1.382       .  A
N1543      C1544   1.355       .  A
N1543      H1553   1.045       .  S
C1544      C1545   1.401       .  A
C1545      H1551   1.082       .  S
N1546      C1547   1.358       .  A
N1546      H1554   1.045       .  S
C1547      C1548   1.395       .  A
C1548      H1552   1.083       .  S
C1555      N1561   1.344       .  A
C1555      C1560   1.384       .  A
C1555      C1556   1.412       .  A
C1556      C1557   1.408       .  A
C1556      H1567   1.082       .  S
C1557      C1566   1.393       .  A
C1557      C1558   1.384       .  A
C1558      N1564   1.333       .  A
C1558      C1559   1.400       .  A
C1559      C1560   1.396       .  A
C1559      H1568   1.083       .  S
C1560      C1563   1.378       .  A
N1561      C1562   1.360       .  A
N1561      H1571   1.045       .  S
C1562      C1563   1.391       .  A
C1563      H1569   1.082       .  S
N1564      C1565   1.353       .  A
N1564      H1572   1.045       .  S
C1565      C1566   1.398       .  A
C1566      H1570   1.082       .  S
C1573      N1579   1.353       .  A
C1573      C1578   1.384       .  A
C1573      C1574   1.408       .  A
C1574      C1575   1.411       .  A
C1574      H1585   1.082       .  S
C1575      C1584   1.380       .  A
C1575      C1576   1.386       .  A
C1576      N1582   1.342       .  A
C1576      C1577   1.395       .  A
C1577      C1578   1.397       .  A
C1577      H1586   1.083       .  S
C1578      C1581   1.362       .  A
N1579      C1580   1.358       .  A
N1579      H1589   1.044       .  S
C1580      C1581   1.394       .  A
C1581      H1587   1.083   1_565  S
N1582      C1583   1.351       .  A
N1582      H1590   1.045       .  S
C1583      C1584   1.398       .  A
C1584      H1588   1.082       .  S
C1591      N1597   1.346       .  A
C1591      C1596   1.384       .  A
C1591      C1592   1.410       .  A
C1592      C1593   1.408       .  A
C1592      H1603   1.082       .  S
C1593      C1602   1.387       .  A
C1593      C1594   1.383       .  A
C1594      N1600   1.341       .  A
C1594      C1595   1.403       .  A
C1595      C1596   1.402       .  A
C1595      H1604   1.082       .  S
C1596      C1599   1.380       .  A
N1597      C1598   1.359       .  A
N1597      H1607   1.045       .  S
C1598      C1599   1.395       .  A
C1599      H1605   1.082       .  S
N1600      C1601   1.357       .  A
N1600      H1608   1.045       .  S
C1601      C1602   1.399       .  A
C1602      H1606   1.082       .  S
C1609      N1615   1.343       .  A
C1609      C1614   1.383       .  A
C1609      C1610   1.406       .  A
C1610      C1611   1.403       .  A
C1610      H1621   1.082       .  S
C1611      C1620   1.382       .  A
C1611      C1612   1.384       .  A
C1612      N1618   1.345       .  A
C1612      C1613   1.409       .  A
C1613      C1614   1.407       .  A
C1613      H1622   1.082       .  S
C1614      C1617   1.386       .  A
N1615      C1616   1.357       .  A
N1615      H1625   1.045       .  S
C1616      C1617   1.399       .  A
C1617      H1623   1.082       .  S
N1618      C1619   1.359       .  A
N1618      H1626   1.045       .  S
C1619      C1620   1.396       .  A
C1620      H1624   1.082       .  S
C1627      N1633   1.348       .  A
C1627      C1632   1.384       .  A
C1627      C1628   1.408       .  A
C1628      C1629   1.409       .  A
C1628      H1639   1.082       .  S
C1629      C1638   1.384       .  A
C1629      C1630   1.385       .  A
C1630      N1636   1.339       .  A
C1630      C1631   1.398       .  A
C1631      C1632   1.397       .  A
C1631      H1640   1.083       .  S
C1632      C1635   1.371       .  A
N1633      C1634   1.358       .  A
N1633      H1643   1.045       .  S
C1634      C1635   1.392       .  A
C1635      H1641   1.083       .  S
N1636      C1637   1.353       .  A
N1636      H1644   1.044       .  S
C1637      C1638   1.398       .  A
C1638      H1642   1.083       .  S
C1645      N1651   1.341       .  A
C1645      C1650   1.386       .  A
C1645      C1646   1.398       .  A
C1646      C1647   1.398       .  A
C1646      H1657   1.083       .  S
C1647      C1656   1.369       .  A
C1647      C1648   1.384       .  A
C1648      N1654   1.350       .  A
C1648      C1649   1.407       .  A
C1649      C1650   1.409       .  A
C1649      H1658   1.082       .  S
C1650      C1653   1.381       .  A
N1651      C1652   1.353       .  A
N1651      H1661   1.045       .  S
C1652      C1653   1.398       .  A
C1653      H1659   1.083       .  S
N1654      C1655   1.358       .  A
N1654      H1662   1.044       .  S
C1655      C1656   1.394       .  A
C1656      H1660   1.083       .  S
