geometry optimzed in LAMMPS
_audit_creation_date              2020-11-30 
_audit_creation_method            'lammps2cif' 
_symmetry_space_group_name_H-M    'P1' 
_symmetry_Int_Tables_number       1 
_symmetry_cell_setting            triclinic 
loop_ 
_symmetry_equiv_pos_as_xyz 
  x,y,z 
_cell_length_a                    51.42321791 
_cell_length_b                    51.21939346297602 
_cell_length_c                    51.55763361292051 
_cell_angle_alpha                 91.76647412876763 
_cell_angle_beta                  90.41435062388206 
_cell_angle_gamma                 88.89885386583606 
loop_ 
_atom_site_label 
_atom_site_type_symbol 
_atom_site_fract_x 
_atom_site_fract_y 
_atom_site_fract_z 
_atom_site_charge 
N1          N  0.90325434  0.83370782  0.11241033    -0.26400
N2          N  0.88215548  0.83412112  0.09751346    -0.34300
C3          C  0.88496975  0.81586352  0.07827894     0.01900
C4          C  0.90898771  0.80346261  0.08117055     0.07900
C5          C  0.92002723  0.81540991  0.10286643    -0.05200
H6          H  0.87075603  0.81226952  0.06307690     0.08600
H7          H  0.93893132  0.81105396  0.11119435     0.09800
Cu8        Cu  0.85043433  0.85972987  0.10338669     0.44200
Cu9        Cu  0.90908222  0.85745090  0.14547891     0.42000
Cu10       Cu  0.85684926  0.90184406  0.16051633     0.43900
N11         N  0.82213842  0.88746100  0.11490202    -0.33800
N12         N  0.82472168  0.90234215  0.13614421    -0.28100
C13         C  0.80395109  0.91847091  0.13852333    -0.04200
C14         C  0.78743595  0.91385830  0.11775564     0.08000
C15         C  0.79951856  0.89397785  0.10306263     0.01800
H16         H  0.80143132  0.93312451  0.15391887     0.09500
H17         H  0.79269757  0.88521400  0.08497641     0.08600
N18         N  0.89042383  0.89975867  0.18276024    -0.35300
N19         N  0.90989600  0.88328729  0.17752561    -0.27400
C20         C  0.92880726  0.88695652  0.19546528    -0.02700
C21         C  0.92071081  0.90678443  0.21274954     0.05900
C22         C  0.89634428  0.91437340  0.20399574     0.04000
H23         H  0.94713017  0.87622516  0.19561942     0.09100
H24         H  0.88388903  0.92964456  0.21232898     0.08000
C25         C  0.16670197  0.45723506  0.95855661    -0.01600
C26         C  0.96189610  0.45247255  0.93839384    -0.01600
C27         C  0.95543511  0.65747727  0.93840463    -0.01600
C28         C  0.16113224  0.66229767  0.93402093    -0.01600
N29         N  0.23549627  0.80263113  0.11443769    -0.26400
N30         N  0.25278158  0.81041602  0.09759537    -0.34300
C31         C  0.25492128  0.79228216  0.07818804     0.01900
C32         C  0.23817258  0.77211049  0.08315146     0.07900
C33         C  0.22638268  0.77932088  0.10634680    -0.05200
H34         H  0.26712902  0.79416181  0.06138026     0.08600
H35         H  0.21125125  0.76898401  0.11598796     0.09800
Cu36       Cu  0.27116033  0.84627977  0.10101436     0.44200
Cu37       Cu  0.22212317  0.82529787  0.14582762     0.42000
Cu38       Cu  0.24783752  0.88978117  0.15350600     0.43900
N39         N  0.28553384  0.88345958  0.10897079    -0.33800
N40         N  0.27661543  0.89933845  0.12772593    -0.28100
C41         C  0.28923482  0.92206117  0.12718282    -0.04200
C42         C  0.30718141  0.92037956  0.10738784     0.08000
C43         C  0.30430856  0.89563239  0.09618409     0.01800
H44         H  0.28560884  0.93861731  0.14029787     0.09500
H45         H  0.31463777  0.88725185  0.07962951     0.08600
N46         N  0.21851724  0.87611804  0.17653921    -0.35300
N47         N  0.20869074  0.85256544  0.17345003    -0.27400
C48         C  0.18876304  0.85032940  0.18997285    -0.02700
C49         C  0.18620248  0.87343932  0.20439482     0.05900
C50         C  0.20538001  0.88938055  0.19533281     0.04000
H51         H  0.17674935  0.83329460  0.19109589     0.09100
H52         H  0.20886618  0.90949372  0.20114772     0.08000
N53         N  0.81195602  0.22550771  0.76316279    -0.26400
N54         N  0.81967775  0.21235972  0.74204671    -0.34300
C55         C  0.80468052  0.19128619  0.73845106     0.01900
C56         C  0.78671743  0.19110887  0.75828845     0.07900
C57         C  0.79189793  0.21316367  0.77358684    -0.05200
H58         H  0.80699099  0.17688349  0.72280025     0.08600
H59         H  0.78213697  0.21975364  0.79116351     0.09800
Cu60       Cu  0.85105204  0.22312437  0.71996592     0.44200
Cu61       Cu  0.82931569  0.25929309  0.77748429     0.42000
Cu62       Cu  0.88354262  0.28260047  0.74143706     0.43900
N63         N  0.88425898  0.23697252  0.70287524    -0.33800
N64         N  0.89606018  0.25857953  0.71065376    -0.28100
C65         C  0.91739122  0.26144617  0.69615010    -0.04200
C66         C  0.91914015  0.24068851  0.67842083     0.08000
C67         C  0.89774977  0.22554602  0.68321458     0.01800
H68         H  0.93083176  0.27735217  0.69853526     0.09500
H69         H  0.89241196  0.20742125  0.67346544     0.08600
N70         N  0.86932704  0.30127250  0.77486554    -0.35300
N71         N  0.84969413  0.29253105  0.78830451    -0.27400
C72         C  0.84641290  0.30785455  0.80974989    -0.02700
C73         C  0.86483973  0.32719082  0.80985333     0.05900
C74         C  0.87903059  0.32241772  0.78735174     0.04000
H75         H  0.83210198  0.30471950  0.82456348     0.09100
H76         H  0.89572558  0.33285599  0.78085238     0.08000
C77         C  0.45568248  0.04002267  0.04245668    -0.01600
C78         C  0.45761348  0.06577202  0.84115526    -0.01600
C79         C  0.66339972  0.05500033  0.83818267    -0.01600
C80         C  0.65825068  0.04712232  0.04141522    -0.01600
N81         N  0.88646969  0.22132633  0.16305360    -0.26400
N82         N  0.90297428  0.24042276  0.15963058    -0.34300
C83         C  0.92101761  0.24003060  0.17873615     0.01900
C84         C  0.91571910  0.21957536  0.19479258     0.07900
C85         C  0.89373265  0.20821893  0.18420904    -0.05200
H86         H  0.93767425  0.25260721  0.17981593     0.08600
H87         H  0.88434596  0.19090663  0.19075589     0.09800
Cu88       Cu  0.90284136  0.26344074  0.12689594     0.44200
Cu89       Cu  0.85618569  0.21159986  0.13772312     0.42000
Cu90       Cu  0.85682932  0.24242748  0.07685896     0.43900
N91         N  0.90108395  0.27876469  0.08985243    -0.33800
N92         N  0.88472363  0.27027498  0.07170458    -0.28100
C93         C  0.88896355  0.28276546  0.04968224    -0.04200
C94         C  0.90877283  0.30014523  0.05401787     0.08000
C95         C  0.91611112  0.29716448  0.07974308     0.01800
H96         H  0.87825447  0.27948780  0.03176338     0.09500
H97         H  0.93143836  0.30720970  0.09021102     0.08600
N98         N  0.82924569  0.21546845  0.08606741    -0.35300
N99         N  0.82874335  0.20409787  0.10869480    -0.27400
C100        C  0.80849874  0.18780708  0.10888597    -0.02700
C101        C  0.79566924  0.18906790  0.08513342     0.05900
C102        C  0.80941584  0.20679594  0.07123221     0.04000
H103        H  0.80365992  0.17596540  0.12509540     0.09100
H104        H  0.80531160  0.21294422  0.05170168     0.08000
N105        N  0.27743364  0.91986526  0.76763591    -0.26400
N106        N  0.28188711  0.90495871  0.78772485    -0.34300
C107        C  0.30037122  0.91575825  0.80288738     0.01900
C108        C  0.30821908  0.93842611  0.79174998     0.07900
C109        C  0.29328136  0.94052038  0.76936198    -0.05200
H110        H  0.30751467  0.90771507  0.82080989     0.08600
H111        H  0.29332342  0.95619933  0.75579177     0.09800
Cu112      Cu  0.26290911  0.87049278  0.79371826     0.44200
Cu113      Cu  0.24858026  0.91170004  0.74016127     0.42000
Cu114      Cu  0.21197287  0.85138001  0.74961788     0.43900
N115        N  0.24354851  0.83566864  0.79604279    -0.33800
N116        N  0.22474676  0.82820699  0.78001938    -0.28100
C117        C  0.21611543  0.80484436  0.78739254    -0.04200
C118        C  0.23030787  0.79744031  0.80910329     0.08000
C119        C  0.24746459  0.81744058  0.81387400     0.01800
H120        H  0.20046522  0.79435753  0.77791272     0.09500
H121        H  0.26153330  0.81887963  0.82954025     0.08600
N122        N  0.20315207  0.87889775  0.72158898    -0.35300
N123        N  0.21655057  0.90027871  0.71786026    -0.27400
C124        C  0.20498757  0.91390761  0.69887621    -0.02700
C125        C  0.18320673  0.90055983  0.69032987     0.05900
C126        C  0.18265116  0.87855763  0.70520200     0.04000
H127        H  0.21135998  0.93269061  0.69261795     0.09100
H128        H  0.16802317  0.86364668  0.70456868     0.08000
C129        C  0.05731688  0.17064926  0.33544588    -0.01600
C130        C  0.06579898  0.96522169  0.34543863    -0.01600
C131        C  0.05806669  0.96189193  0.54396181    -0.01600
C132        C  0.05425264  0.16905121  0.54102751    -0.01600
N133        N  0.22964653  0.24203403  0.69780892    -0.26400
N134        N  0.21296893  0.26064699  0.70551588    -0.34300
C135        C  0.19227195  0.26033810  0.68915921     0.01900
C136        C  0.19632074  0.24051785  0.67049288     0.07900
C137        C  0.22015496  0.22954153  0.67666381    -0.05200
H138        H  0.17491090  0.27239976  0.69170166     0.08600
H139        H  0.22924685  0.21249185  0.66739750     0.09800
Cu140      Cu  0.21831251  0.28284642  0.74003980     0.44200
Cu141      Cu  0.26266956  0.23022789  0.71778867     0.42000
Cu142      Cu  0.27224750  0.25724562  0.78041227     0.43900
N143        N  0.22872521  0.29827060  0.77683421    -0.33800
N144        N  0.24774077  0.28836731  0.79119785    -0.28100
C145        C  0.24841416  0.30127940  0.81426098    -0.04200
C146        C  0.22918017  0.32042727  0.81462977     0.08000
C147        C  0.21700748  0.31803967  0.79054304     0.01800
H148        H  0.26171142  0.29668175  0.82991153     0.09500
H149        H  0.20024281  0.32907926  0.78387901     0.08600
N150        N  0.29538776  0.22665653  0.76573037    -0.35300
N151        N  0.29186370  0.21673999  0.74207180    -0.27400
C152        C  0.30923304  0.19715152  0.73772575    -0.02700
C153        C  0.32458946  0.19464049  0.75969452     0.05900
C154        C  0.31520705  0.21370400  0.77714596     0.04000
H155        H  0.31049181  0.18546472  0.71992306     0.09100
H156        H  0.32202637  0.21780332  0.79671317     0.08000
N157        N  0.23391474  0.23291124  0.18790793    -0.26400
N158        N  0.22193263  0.25452789  0.18047227    -0.34300
C159        C  0.20160183  0.25978497  0.19612398     0.01900
C160        C  0.20062103  0.24069435  0.21439948     0.07900
C161        C  0.22146057  0.22389328  0.20864877    -0.05200
H162        H  0.18816896  0.27611905  0.19403622     0.08600
H163        H  0.22684891  0.20611850  0.21829496     0.09800
Cu164      Cu  0.23280483  0.27584209  0.14893711     0.44200
Cu165      Cu  0.26588292  0.21628235  0.16841363     0.42000
Cu166      Cu  0.28807199  0.25171704  0.11253860     0.43900
N167        N  0.24672591  0.29416443  0.11670697    -0.33800
N168        N  0.26713661  0.28539630  0.10341282    -0.28100
C169        C  0.27074502  0.30094792  0.08324698    -0.04200
C170        C  0.25168914  0.32039640  0.08380988     0.08000
C171        C  0.23676532  0.31549489  0.10535349     0.01800
H172        H  0.28573571  0.29790526  0.06878904     0.09500
H173        H  0.21958037  0.32612229  0.11200716     0.08600
N174        N  0.30489265  0.21682663  0.12460188    -0.35300
N175        N  0.29676705  0.20388548  0.14473638    -0.27400
C176        C  0.31134380  0.18192088  0.14678252    -0.02700
C177        C  0.32955822  0.18096077  0.12712183     0.05900
C178        C  0.32486970  0.20346332  0.11339374     0.04000
H179        H  0.30875448  0.16754200  0.16145201     0.09100
H180        H  0.33487548  0.20960195  0.09633323     0.08000
N181        N  0.90951155  0.85361446  0.70179986    -0.26400
N182        N  0.89817567  0.87650246  0.69777968    -0.34300
C183        C  0.91048564  0.88808787  0.67838019     0.01900
C184        C  0.93058733  0.87157922  0.66980186     0.07900
C185        C  0.92931489  0.84996066  0.68511462    -0.05200
H186        H  0.90533363  0.90722422  0.67143116     0.08600
H187        H  0.94218589  0.83300025  0.68451012     0.09800
Cu188      Cu  0.86684741  0.89051793  0.71964013     0.44200
Cu189      Cu  0.89838272  0.82932081  0.73094786     0.42000
Cu190      Cu  0.84437028  0.84975912  0.77219913     0.37500
N191        N  0.83500760  0.89957252  0.74303764    -0.33800
N192        N  0.82630799  0.88473690  0.76155653    -0.28100
C193        C  0.80552648  0.89680524  0.77276383    -0.04200
C194        C  0.80112857  0.92036296  0.76076362     0.08000
C195        C  0.82023074  0.92145658  0.74218003     0.01800
H196        H  0.79518475  0.88950266  0.78914022     0.09500
H197        H  0.82351205  0.93731638  0.72928225     0.08600
N198        N  0.86790586  0.81692724  0.77886563    -0.35300
N199        N  0.88729558  0.80956641  0.76341770    -0.27400
C200        C  0.89954386  0.78863703  0.77321068    -0.02700
C201        C  0.88750871  0.78243017  0.79600035     0.05900
C202        C  0.86742121  0.80077756  0.79904307     0.04000
H203        H  0.91656903  0.77911927  0.76476017     0.09100
H204        H  0.85387112  0.80272127  0.81496488     0.08000
C205        C  0.13756032  0.22557239  0.62574839     0.19500
C206        C  0.12376516  0.23824530  0.60596540    -0.18500
C207        C  0.10664070  0.22426433  0.58955238    -0.10800
C208        C  0.10268928  0.19750190  0.59315149     0.21800
C209        C  0.11606709  0.18513976  0.61329698    -0.20200
C210        C  0.13337785  0.19888513  0.62927159    -0.11000
C211        C  0.08325161  0.18204276  0.57816296    -0.15200
C212        C  0.07539979  0.18615276  0.55349691    -0.29000
C213        C  0.15579041  0.24017269  0.64318657    -0.03300
C214        C  0.17819376  0.22892199  0.65114921    -0.39800
H215        H  0.12638559  0.25888887  0.60312106     0.13000
H216        H  0.09602682  0.23451430  0.57466070     0.12600
H217        H  0.11299945  0.16467749  0.61680522     0.12000
H218        H  0.14307570  0.18869678  0.64480232     0.12300
H219        H  0.07511166  0.16562375  0.58800900     0.15000
H220        H  0.08364755  0.20183030  0.54269268     0.13800
H221        H  0.15090649  0.26013430  0.64927622     0.11500
H222        H  0.18366520  0.20972878  0.64318961     0.13500
C223        C  0.97102812  0.90315403  0.61611935     0.19500
C224        C  0.96698593  0.92481317  0.60044924    -0.18500
C225        C  0.98600481  0.93228415  0.58308829    -0.10800
C226        C  0.00985538  0.91843532  0.58120775     0.21800
C227        C  0.01354956  0.89614164  0.59605247    -0.20200
C228        C  0.99447650  0.88861184  0.61343482    -0.11000
C229        C  0.03151183  0.92708420  0.56466764    -0.15200
C230        C  0.03431002  0.95216947  0.55814070    -0.29000
C231        C  0.95074064  0.89742748  0.63559347    -0.03300
C232        C  0.95039913  0.87576368  0.64971982    -0.39800
H233        H  0.94906902  0.93623695  0.60181988     0.13000
H234        H  0.98184796  0.94895258  0.57126609     0.12600
H235        H  0.03163198  0.88498468  0.59483070     0.12000
H236        H  0.99871482  0.87189166  0.62510616     0.12300
H237        H  0.04676596  0.91295800  0.55943206     0.15000
H238        H  0.01985530  0.96662832  0.56456485     0.13800
H239        H  0.93535356  0.91201935  0.63849444     0.11500
H240        H  0.96496006  0.86041096  0.64685069     0.13500
C241        C  0.05544379  0.09248006  0.53509968     0.19500
C242        C  0.04043665  0.07388788  0.52156991    -0.18500
C243        C  0.04546790  0.04714676  0.52408494    -0.10800
C244        C  0.06549075  0.03829173  0.54063905     0.21800
C245        C  0.08085467  0.05688854  0.55372388    -0.20200
C246        C  0.07584107  0.08363399  0.55119403    -0.11000
C247        C  0.07101554  0.01004681  0.54491955    -0.15200
C248        C  0.05362275  0.99112733  0.53988162    -0.29000
C249        C  0.04816883  0.12064960  0.53298600    -0.03300
C250        C  0.06349556  0.14047341  0.54089359    -0.39800
H251        H  0.02465661  0.08008258  0.50901285     0.13000
H252        H  0.03366094  0.03369136  0.51281624     0.12600
H253        H  0.09645627  0.05069258  0.56650245     0.12000
H254        H  0.08758750  0.09707396  0.56253832     0.12300
H255        H  0.08985369  0.00492572  0.55312755     0.15000
H256        H  0.03487251  0.99637222  0.53157205     0.13800
H257        H  0.02907542  0.12539671  0.52508164     0.11500
H258        H  0.08306435  0.13625421  0.54769861     0.13500
C259        C  0.07769083  0.94868212  0.47181125     0.19500
C260        C  0.06181875  0.92930755  0.46033693    -0.18500
C261        C  0.05989443  0.92648032  0.43321575    -0.10800
C262        C  0.07351764  0.94305316  0.41717264     0.21800
C263        C  0.09070018  0.96110189  0.42870720    -0.20200
C264        C  0.09271095  0.96385090  0.45564339    -0.11000
C265        C  0.06914606  0.94199754  0.38856890    -0.15200
C266        C  0.06919953  0.96397601  0.37485083    -0.29000
C267        C  0.07835271  0.95505185  0.50018324    -0.03300
C268        C  0.05961829  0.94886448  0.51699561    -0.39800
H269        H  0.05059308  0.91658662  0.47206959     0.13000
H270        H  0.04699171  0.91201272  0.42477167     0.12600
H271        H  0.10238696  0.97342620  0.41693311     0.12000
H272        H  0.10544757  0.97859231  0.46387081     0.12300
H273        H  0.06488396  0.92339891  0.37894027     0.15000
H274        H  0.07211510  0.98230320  0.38558834     0.13800
H275        H  0.09339377  0.96821611  0.50713993     0.11500
H276        H  0.04392777  0.93628091  0.51064707     0.13500
C277        C  0.15785556  0.21581495  0.26973069     0.19500
C278        C  0.15543577  0.19126662  0.28072419    -0.18500
C279        C  0.13419163  0.18590482  0.29633875    -0.10800
C280        C  0.11472631  0.20507030  0.30133363     0.21800
C281        C  0.11784125  0.23007442  0.29151727    -0.20200
C282        C  0.13913643  0.23545527  0.27589599    -0.11000
C283        C  0.09117484  0.19981411  0.31686318    -0.15200
C284        C  0.08193054  0.17564582  0.32003791    -0.29000
C285        C  0.17988742  0.21977912  0.25170474    -0.03300
C286        C  0.18000817  0.23861997  0.23408007    -0.39800
H287        H  0.16981830  0.17594421  0.27681252     0.13000
H288        H  0.13327087  0.16675370  0.30447774     0.12600
H289        H  0.10350412  0.24539741  0.29558175     0.12000
H290        H  0.14073370  0.25499055  0.26879564     0.12300
H291        H  0.08035347  0.21645302  0.32516654     0.15000
H292        H  0.09173341  0.15900084  0.31064465     0.13800
H293        H  0.19581043  0.20554946  0.25183189     0.11500
H294        H  0.16396411  0.25258211  0.23300934     0.13500
C295        C  0.05745664  0.04126028  0.34629719     0.19500
C296        C  0.03663068  0.05900828  0.35015182    -0.18500
C297        C  0.04048308  0.08589454  0.34922902    -0.10800
C298        C  0.06539015  0.09557200  0.34467027     0.21800
C299        C  0.08634344  0.07789773  0.34142604    -0.20200
C300        C  0.08245964  0.05098922  0.34211014    -0.11000
C301        C  0.07023063  0.12397059  0.34426416    -0.15200
C302        C  0.05248701  0.14129727  0.33547340    -0.29000
C303        C  0.05281381  0.01296157  0.34893754    -0.03300
C304        C  0.06831491  0.99393559  0.33846521    -0.39800
H305        H  0.01733443  0.05203692  0.35404891     0.13000
H306        H  0.02406943  0.09904572  0.35274708     0.12600
H307        H  0.10578194  0.08494916  0.33835705     0.12000
H308        H  0.09920881  0.03800753  0.34013522     0.12300
H309        H  0.08924162  0.13079818  0.35045000     0.15000
H310        H  0.03397584  0.13419400  0.32814924     0.13800
H311        H  0.03639462  0.00742796  0.36059329     0.11500
H312        H  0.08406525  0.99921842  0.32585397     0.13500
C313        C  0.05919828  0.17674073  0.46551262     0.19500
C314        C  0.07979620  0.17823959  0.44788695    -0.18500
C315        C  0.07515112  0.17868328  0.42106387    -0.10800
C316        C  0.04960495  0.17762113  0.41103481     0.21800
C317        C  0.02899356  0.17617591  0.42866052    -0.20200
C318        C  0.03363784  0.17577404  0.45550524    -0.11000
C319        C  0.04383735  0.17515585  0.38254414    -0.15200
C320        C  0.06101421  0.18021676  0.36368203    -0.29000
C321        C  0.06546300  0.17394042  0.49373211    -0.03300
C322        C  0.04798064  0.17667220  0.51313378    -0.39800
H323        H  0.09970602  0.17850615  0.45487872     0.13000
H324        H  0.09178689  0.17882983  0.40838759     0.12600
H325        H  0.00916768  0.17475279  0.42158812     0.12000
H326        H  0.01714940  0.17373913  0.46810627     0.12300
H327        H  0.02525552  0.16694158  0.37679446     0.15000
H328        H  0.07933117  0.18915612  0.36896322     0.13800
H329        H  0.08530415  0.16829337  0.49877345     0.11500
H330        H  0.02824558  0.18305901  0.50875376     0.13500
C331        C  0.10585561  0.95376350  0.60247226     0.19500
C332        C  0.10003838  0.94739315  0.62801706    -0.18500
C333        C  0.11956204  0.93848088  0.64473954    -0.10800
C334        C  0.14550622  0.93629118  0.63640345     0.21800
C335        C  0.15151601  0.94358791  0.61111752    -0.20200
C336        C  0.13181794  0.95193185  0.59413177    -0.11000
C337        C  0.16658070  0.92741564  0.65417074    -0.15200
C338        C  0.16291550  0.90882810  0.67162723    -0.29000
C339        C  0.08436637  0.96266114  0.58534609    -0.03300
C340        C  0.08250436  0.95559507  0.55998351    -0.39800
H341        H  0.08020962  0.94896810  0.63494646     0.13000
H342        H  0.11440029  0.93376598  0.66433893     0.12600
H343        H  0.17143640  0.94249148  0.60440741     0.12000
H344        H  0.13691863  0.95732075  0.57470530     0.12300
H345        H  0.18571184  0.93576087  0.65225121     0.15000
H346        H  0.14443349  0.89893296  0.67206466     0.13800
H347        H  0.06816764  0.97328049  0.59441868     0.11500
H348        H  0.09789959  0.94359343  0.55116957     0.13500
C349        C  0.00612240  0.18870710  0.28194775     0.19500
C350        C  0.99430684  0.17293717  0.26265943    -0.18500
C351        C  0.97584647  0.18339104  0.24567078    -0.10800
C352        C  0.96898090  0.21009301  0.24731812     0.21800
C353        C  0.98077047  0.22592998  0.26664768    -0.20200
C354        C  0.99898544  0.21530955  0.28402323    -0.11000
C355        C  0.95120377  0.22208032  0.22785944    -0.15200
C356        C  0.93183597  0.20883955  0.21603027    -0.29000
C357        C  0.02765324  0.17710845  0.29742057    -0.03300
C358        C  0.03436963  0.18432666  0.32201151    -0.39800
H359        H  0.99977324  0.15245526  0.26040395     0.13000
H360        H  0.96782344  0.17070997  0.23058395     0.12600
H361        H  0.97609896  0.24663210  0.26808704     0.12000
H362        H  0.00823370  0.22809500  0.29826837     0.12300
H363        H  0.95411938  0.24235496  0.22324960     0.15000
H364        H  0.92754133  0.18925015  0.22198014     0.13800
H365        H  0.03837046  0.16090949  0.28811986     0.11500
H366        H  0.02348079  0.19975524  0.33229207     0.13500
C367        C  0.73790978  0.14156723  0.08040197     0.19500
C368        C  0.73243318  0.11841255  0.09296349    -0.18500
C369        C  0.71206866  0.10258374  0.08442066    -0.10800
C370        C  0.69659782  0.10954537  0.06299608     0.21800
C371        C  0.70127213  0.13327371  0.05110847    -0.20200
C372        C  0.72175662  0.14912843  0.05962672    -0.11000
C373        C  0.67578109  0.09224014  0.05257271    -0.15200
C374        C  0.67784634  0.06602269  0.05357429    -0.29000
C375        C  0.76037073  0.15721577  0.08991544    -0.03300
C376        C  0.77254589  0.17476341  0.07563172    -0.39800
H377        H  0.74419006  0.11234013  0.10930474     0.13000
H378        H  0.70844343  0.08496013  0.09475360     0.12600
H379        H  0.68936781  0.13930123  0.03486019     0.12000
H380        H  0.72466617  0.16728021  0.04998037     0.12300
H381        H  0.65945837  0.10094962  0.04224133     0.15000
H382        H  0.69528812  0.05765270  0.06226841     0.13800
H383        H  0.76794050  0.15310602  0.10911173     0.11500
H384        H  0.76604810  0.17841123  0.05598747     0.13500
C385        C  0.74518817  0.96144516  0.79161278     0.19500
C386        C  0.71821066  0.95894132  0.79469443    -0.18500
C387        C  0.70298918  0.98000524  0.80455535    -0.10800
C388        C  0.71473682  0.00366537  0.81200600     0.21800
C389        C  0.74166816  0.00600835  0.80897932    -0.20200
C390        C  0.75670033  0.98526573  0.79878913    -0.11000
C391        C  0.70052805  0.02552216  0.82544856    -0.15200
C392        C  0.67499296  0.03169554  0.82262937    -0.29000
C393        C  0.76148977  0.93875641  0.78248140    -0.03300
C394        C  0.78272853  0.94184419  0.76788066    -0.39800
H395        H  0.70897761  0.94063865  0.78962321     0.13000
H396        H  0.68235323  0.97741843  0.80726420     0.12600
H397        H  0.75123101  0.02389554  0.81495393     0.12000
H398        H  0.77752157  0.98762893  0.79742969     0.12300
H399        H  0.71215347  0.03795761  0.83826344     0.15000
H400        H  0.66288990  0.02049300  0.80920956     0.13800
H401        H  0.75593283  0.91929937  0.78782985     0.11500
H402        H  0.78697638  0.96103239  0.76076094     0.13500
C403        C  0.67073740  0.05557624  0.96761860     0.19500
C404        C  0.68601278  0.04139469  0.94951289    -0.18500
C405        C  0.68225757  0.04462762  0.92291869    -0.10800
C406        C  0.66314454  0.06229677  0.91390303     0.21800
C407        C  0.64854687  0.07716745  0.93208950    -0.20200
C408        C  0.65222753  0.07383641  0.95867625    -0.11000
C409        C  0.65883996  0.06673184  0.88583998    -0.15200
C410        C  0.66567169  0.04919890  0.86698857    -0.29000
C411        C  0.67463907  0.05101905  0.99565241    -0.03300
C412        C  0.65493442  0.05278853  0.01269104    -0.39800
H413        H  0.70069104  0.02756121  0.95596835     0.13000
H414        H  0.69474085  0.03358638  0.90962666     0.12600
H415        H  0.63416475  0.09133874  0.92569493     0.12000
H416        H  0.64077687  0.08581064  0.97216674     0.12300
H417        H  0.64981700  0.08514303  0.88036555     0.15000
H418        H  0.67336028  0.03019828  0.87231319     0.13800
H419        H  0.69372235  0.04446048  0.00223974     0.11500
H420        H  0.63563812  0.05812176  0.00566383     0.13500
C421        C  0.38266848  0.15500929  0.78835098     0.19500
C422        C  0.40144604  0.16024917  0.80766457    -0.18500
C423        C  0.42107840  0.14187550  0.81320853    -0.10800
C424        C  0.42224581  0.11761711  0.79966812     0.21800
C425        C  0.40392661  0.11263007  0.77988777    -0.20200
C426        C  0.38425124  0.13095875  0.77438049    -0.11000
C427        C  0.44077752  0.09624861  0.80685661    -0.15200
C428        C  0.44825864  0.09247244  0.83164681    -0.29000
C429        C  0.36126610  0.17462060  0.78430964    -0.03300
C430        C  0.34590895  0.17510336  0.76302229    -0.39800
H431        H  0.40079814  0.17858449  0.81869697     0.13000
H432        H  0.43515181  0.14667901  0.82822558     0.12600
H433        H  0.40419592  0.09400866  0.76933187     0.12000
H434        H  0.36993930  0.12570330  0.75977936     0.12300
H435        H  0.44432984  0.08059819  0.79251900     0.15000
H436        H  0.44342721  0.10757045  0.84614058     0.13800
H437        H  0.35841203  0.18960301  0.79942234     0.11500
H438        H  0.34912276  0.16116502  0.74708144     0.13500
C439        C  0.35803660  0.99314923  0.80125516     0.19500
C440        C  0.37893624  0.00151846  0.78648267    -0.18500
C441        C  0.39741109  0.01830143  0.79751836    -0.10800
C442        C  0.39497194  0.02733998  0.82344002     0.21800
C443        C  0.37357410  0.01975961  0.83788368    -0.20200
C444        C  0.35538274  0.00264686  0.82701533    -0.11000
C445        C  0.41362155  0.04580478  0.83544261    -0.15200
C446        C  0.43923780  0.04504994  0.83010500    -0.29000
C447        C  0.33888671  0.97502824  0.78930797    -0.03300
C448        C  0.32732411  0.95671392  0.80306696    -0.39800
H449        H  0.38111484  0.99481655  0.76646097     0.13000
H450        H  0.41325229  0.02458945  0.78564039     0.12600
H451        H  0.37105433  0.02694804  0.85771039     0.12000
H452        H  0.33901515  0.99723411  0.83865005     0.12300
H453        H  0.40616636  0.06031237  0.84946257     0.15000
H454        H  0.44683336  0.02967109  0.81713003     0.13800
H455        H  0.33522879  0.97591611  0.76856677     0.11500
H456        H  0.33268017  0.95430799  0.82328631     0.13500
C457        C  0.58749872  0.05197482  0.83480951     0.19500
C458        C  0.56846180  0.03302339  0.83043795    -0.18500
C459        C  0.54190076  0.03982575  0.83143861    -0.10800
C460        C  0.53377180  0.06583524  0.83711139     0.21800
C461        C  0.55286565  0.08470882  0.84147486    -0.20200
C462        C  0.57933296  0.07794709  0.84033164    -0.11000
C463        C  0.50590708  0.07367164  0.84116413    -0.15200
C464        C  0.48553355  0.05952935  0.83261395    -0.29000
C465        C  0.61553401  0.04391398  0.83597091    -0.03300
C466        C  0.63489142  0.06052252  0.83138874    -0.39800
H467        H  0.57416228  0.01279997  0.82666971     0.13000
H468        H  0.52796422  0.02442564  0.82878659     0.12600
H469        H  0.54727656  0.10473955  0.84638787     0.12000
H470        H  0.59327803  0.09298976  0.84488284     0.12300
H471        H  0.50191828  0.09145225  0.85261539     0.15000
H472        H  0.48914490  0.04230196  0.82031892     0.13800
H473        H  0.62042025  0.02427203  0.84200824     0.11500
H474        H  0.62984308  0.07967872  0.82417459     0.13500
C475        C  0.38571792  0.13848927  0.09685080     0.19500
C476        C  0.39818337  0.13805718  0.07268671    -0.18500
C477        C  0.41513650  0.11747555  0.06529665    -0.10800
C478        C  0.42006835  0.09665941  0.08200340     0.21800
C479        C  0.40852617  0.09772423  0.10663825    -0.20200
C480        C  0.39160992  0.11833338  0.11404233    -0.11000
C481        C  0.43629834  0.07314652  0.07448855    -0.15200
C482        C  0.44309323  0.06651470  0.04987748    -0.29000
C483        C  0.36688333  0.16028207  0.10320093    -0.03300
C484        C  0.34890861  0.15959245  0.12207726    -0.39800
H485        H  0.39445888  0.15354621  0.05922074     0.13000
H486        H  0.42415011  0.11813500  0.04647794     0.12600
H487        H  0.41223739  0.08224812  0.12011654     0.12000
H488        H  0.38333228  0.11826863  0.13323820     0.12300
H489        H  0.44105454  0.05941788  0.08954156     0.15000
H490        H  0.43814213  0.07947514  0.03433005     0.13800
H491        H  0.36719419  0.17718649  0.09100375     0.11500
H492        H  0.34764250  0.14265855  0.13407519     0.13500
C493        C  0.44617718  0.04111883  0.96680680     0.19500
C494        C  0.43074241  0.05707773  0.95104660    -0.18500
C495        C  0.43565038  0.05841402  0.92450307    -0.10800
C496        C  0.45610852  0.04362083  0.91301492     0.21800
C497        C  0.47089638  0.02681334  0.92854168    -0.20200
C498        C  0.46611078  0.02562663  0.95520603    -0.11000
C499        C  0.46134943  0.04440155  0.88470869    -0.15200
C500        C  0.45611895  0.06574048  0.87077838    -0.29000
C501        C  0.44089098  0.04125438  0.99516254    -0.03300
C502        C  0.45968582  0.03728307  0.01303709    -0.39800
H503        H  0.41499385  0.06885306  0.95938277     0.13000
H504        H  0.42305908  0.07071668  0.91298411     0.12600
H505        H  0.48633681  0.01472981  0.92004498     0.12000
H506        H  0.47782650  0.01237582  0.96656078     0.12300
H507        H  0.46930658  0.02693604  0.87495522     0.15000
H508        H  0.44959070  0.08348007  0.88103849     0.13800
H509        H  0.42156323  0.04727042  0.00150298     0.11500
H510        H  0.47929701  0.03305980  0.00614379     0.13500
C511        C  0.58405471  0.03961228  0.05390312     0.19500
C512        C  0.56674239  0.01882693  0.05117651    -0.18500
C513        C  0.53985417  0.02332006  0.05214285    -0.10800
C514        C  0.52963192  0.04885689  0.05557646     0.21800
C515        C  0.54692159  0.06952749  0.05942795    -0.20200
C516        C  0.57388864  0.06497560  0.05882480    -0.11000
C517        C  0.50159110  0.05475323  0.05087437    -0.15200
C518        C  0.48264073  0.03756562  0.05507162    -0.29000
C519        C  0.61184873  0.03463277  0.04729057    -0.03300
C520        C  0.63164478  0.05036889  0.05428796    -0.39800
H521        H  0.57402548  0.99917340  0.04700644     0.13000
H522        H  0.52718780  0.00698022  0.04834019     0.12600
H523        H  0.53953333  0.08939317  0.06173421     0.12000
H524        H  0.58655790  0.08157955  0.06042000     0.12300
H525        H  0.49665193  0.07282474  0.04131829     0.15000
H526        H  0.48749752  0.02027514  0.06593784     0.13800
H527        H  0.61605789  0.01790455  0.03440039     0.11500
H528        H  0.62833914  0.06645708  0.06815670     0.13500
C529        C  0.99832706  0.20048849  0.58303074     0.19500
C530        C  0.99599159  0.22539873  0.59494852    -0.18500
C531        C  0.97750483  0.23063100  0.61424558    -0.10800
C532        C  0.96079157  0.21093655  0.62209989     0.21800
C533        C  0.96278128  0.18613652  0.60976917    -0.20200
C534        C  0.98131435  0.18090627  0.59045517    -0.11000
C535        C  0.94043888  0.21561324  0.64222846    -0.15200
C536        C  0.93993360  0.23628993  0.65902795    -0.29000
C537        C  0.01884529  0.19587617  0.56315652    -0.03300
C538        C  0.02990778  0.17227256  0.55779700    -0.39800
H539        H  0.00869764  0.24089045  0.58943402     0.13000
H540        H  0.97625088  0.25025004  0.62248390     0.12600
H541        H  0.94991765  0.17070519  0.61509868     0.12000
H542        H  0.98195273  0.16166112  0.58122237     0.12300
H543        H  0.92539877  0.20111647  0.64339016     0.15000
H544        H  0.95521318  0.25055671  0.65903247     0.13800
H545        H  0.02705332  0.21288016  0.55438909     0.11500
H546        H  0.02284595  0.15527130  0.56743147     0.13500
C547        C  0.73305995  0.15029705  0.78905485     0.19500
C548        C  0.72445348  0.14828081  0.81466795    -0.18500
C549        C  0.70735447  0.12873209  0.82127989    -0.10800
C550        C  0.69849170  0.11057200  0.80232583     0.21800
C551        C  0.70619951  0.11327683  0.77649254    -0.20200
C552        C  0.72331190  0.13288217  0.76986241    -0.11000
C553        C  0.68139381  0.08855958  0.80863856    -0.15200
C554        C  0.67923185  0.07916135  0.83266151    -0.29000
C555        C  0.75184351  0.17105824  0.78336983    -0.03300
C556        C  0.76718053  0.17079833  0.76229695    -0.39800
H557        H  0.73121948  0.16175188  0.82974739     0.13000
H558        H  0.70111097  0.12816418  0.84122268     0.12600
H559        H  0.69926135  0.09990027  0.76141051     0.12000
H560        H  0.72863766  0.13433011  0.74972330     0.12300
H561        H  0.67134081  0.07857393  0.79270042     0.15000
H562        H  0.69012562  0.08804527  0.84860273     0.13800
H563        H  0.75398106  0.18658771  0.79797943     0.11500
H564        H  0.76631123  0.15489680  0.74796636     0.13500
C565        C  0.10852324  0.93187968  0.29117463     0.19500
C566        C  0.10192364  0.92001543  0.26719129    -0.18500
C567        C  0.12107783  0.90835577  0.25135502    -0.10800
C568        C  0.14734584  0.90876101  0.25906406     0.21800
C569        C  0.15390198  0.92029318  0.28323621    -0.20200
C570        C  0.13465511  0.93154883  0.29931278    -0.11000
C571        C  0.16841148  0.89977110  0.24122633    -0.15200
C572        C  0.16565169  0.88024560  0.22343922    -0.29000
C573        C  0.08805470  0.94654265  0.30584656    -0.03300
C574        C  0.08766664  0.94964778  0.33193438    -0.39800
H575        H  0.08191794  0.92028434  0.26043975     0.13000
H576        H  0.11541832  0.90020638  0.23257922     0.12600
H577        H  0.17405537  0.92108725  0.28943235     0.12000
H578        H  0.14041376  0.94104802  0.31743743     0.12300
H579        H  0.18693267  0.90955013  0.24294087     0.15000
H580        H  0.14808582  0.86881185  0.22290119     0.13800
H581        H  0.07208158  0.95470541  0.29459737     0.11500
H582        H  0.10288933  0.94058461  0.34350679     0.13500
C583        C  0.39607343  0.99630947  0.05787442     0.19500
C584        C  0.36950853  0.00188001  0.06172558    -0.18500
C585        C  0.35301421  0.98289972  0.07096997    -0.10800
C586        C  0.36275415  0.95777625  0.07630950     0.21800
C587        C  0.38919896  0.95205597  0.07214143    -0.20200
C588        C  0.40575125  0.97109634  0.06312467    -0.11000
C589        C  0.34553251  0.93675115  0.08472455    -0.15200
C590        C  0.32450085  0.94140599  0.09961306    -0.29000
C591        C  0.41278684  0.01700812  0.04764325    -0.03300
C592        C  0.43875646  0.01777411  0.05149134    -0.39800
H593        H  0.36146675  0.02101011  0.05753490     0.13000
H594        H  0.33256385  0.98772233  0.07325354     0.12600
H595        H  0.39706039  0.93272522  0.07578646     0.12000
H596        H  0.42588715  0.96570115  0.05967912     0.12300
H597        H  0.35091606  0.91672833  0.07924749     0.15000
H598        H  0.32017650  0.96108078  0.10701232     0.13800
H599        H  0.40307044  0.03313981  0.03816386     0.11500
H600        H  0.44789566  0.00269931  0.06295285     0.13500
C601        C  0.22977447  0.72472705  0.02400767     0.19500
C602        C  0.22923272  0.72925191  0.99729697    -0.18500
C603        C  0.21832330  0.71108469  0.97983324    -0.10800
C604        C  0.20818489  0.68774034  0.98871014     0.21800
C605        C  0.21003076  0.68240454  0.01516232    -0.20200
C606        C  0.22053203  0.70082488  0.03276000    -0.11000
C607        C  0.19487115  0.66936519  0.97055083    -0.15200
C608        C  0.17612357  0.67821454  0.95451232    -0.29000
C609        C  0.23960947  0.74563738  0.04198844    -0.03300
C610        C  0.23132952  0.74909583  0.06657688    -0.39800
H611        H  0.23653558  0.74730007  0.98999223     0.13000
H612        H  0.21755504  0.71534955  0.95938988     0.12600
H613        H  0.20256161  0.66435771  0.02230178     0.12000
H614        H  0.22135997  0.69628894  0.05309971     0.12300
H615        H  0.19993393  0.64876455  0.97124027     0.15000
H616        H  0.17115199  0.69897967  0.95572835     0.13800
H617        H  0.25221999  0.76004712  0.03392424     0.11500
H618        H  0.21746099  0.73575320  0.07438841     0.13500
C619        C  0.20596086  0.73434092  0.84027380     0.19500
C620        C  0.18247246  0.72073356  0.83932791    -0.18500
C621        C  0.17717836  0.70185109  0.85759147    -0.10800
C622        C  0.19540274  0.69611138  0.87720524     0.21800
C623        C  0.21944935  0.70854130  0.87721622    -0.20200
C624        C  0.22474471  0.72737454  0.85902037    -0.11000
C625        C  0.18984876  0.67824951  0.89862178    -0.15200
C626        C  0.16579064  0.67515442  0.90814816    -0.29000
C627        C  0.20981764  0.75593565  0.82188237    -0.03300
C628        C  0.22777846  0.77451386  0.82562656    -0.39800
H629        H  0.16785886  0.72520108  0.82481051     0.13000
H630        H  0.15877258  0.69199671  0.85640140     0.12600
H631        H  0.23397795  0.70421070  0.89186932     0.12000
H632        H  0.24357155  0.73634282  0.85996830     0.12300
H633        H  0.20632308  0.67011785  0.90920699     0.15000
H634        H  0.14931888  0.68434976  0.89848130     0.13800
H635        H  0.19637474  0.75748695  0.80563675     0.11500
H636        H  0.24069417  0.77401580  0.84228593     0.13500
C637        C  0.91349243  0.70012813  0.89103475     0.19500
C638        C  0.92967374  0.70788383  0.87083841    -0.18500
C639        C  0.92085400  0.72616185  0.85300059    -0.10800
C640        C  0.89546840  0.73693121  0.85456108     0.21800
C641        C  0.87929263  0.72901990  0.87456155    -0.20200
C642        C  0.88814013  0.71079521  0.89246713    -0.11000
C643        C  0.88553618  0.75711275  0.83646243    -0.15200
C644        C  0.89642421  0.76152549  0.81336233    -0.29000
C645        C  0.92221234  0.68160310  0.91132682    -0.03300
C646        C  0.94715238  0.67381547  0.91527264    -0.39800
H647        H  0.94920201  0.70011750  0.86853588     0.13000
H648        H  0.93434578  0.73208915  0.83842955     0.12600
H649        H  0.85972453  0.73703742  0.87640793     0.12000
H650        H  0.87517908  0.70527892  0.90775724     0.12300
H651        H  0.86851047  0.76860996  0.84237098     0.15000
H652        H  0.91275027  0.74957377  0.80656944     0.13800
H653        H  0.90763492  0.67519239  0.92477730     0.11500
H654        H  0.96225002  0.68027137  0.90258077     0.13500
C655        C  0.08540493  0.65821805  0.93000660     0.19500
C656        C  0.06802710  0.63980507  0.91965219    -0.18500
C657        C  0.04117790  0.64371731  0.92221385    -0.10800
C658        C  0.03115744  0.66631703  0.93508633     0.21800
C659        C  0.04850148  0.68482935  0.94525914    -0.20200
C660        C  0.07535849  0.68082771  0.94287896    -0.11000
C661        C  0.00279635  0.67196178  0.93668026    -0.15200
C662        C  0.98509043  0.65303192  0.93820299    -0.29000
C663        C  0.11367782  0.65415208  0.92535768    -0.03300
C664        C  0.13228284  0.66508135  0.94043134    -0.39800
H665        H  0.07525247  0.62247945  0.90926827     0.13000
H666        H  0.02837380  0.62945801  0.91331347     0.12600
H667        H  0.04121982  0.70256889  0.95487793     0.12000
H668        H  0.08804326  0.69592349  0.95034179     0.12300
H669        H  0.99670978  0.69223211  0.93606407     0.15000
H670        H  0.99247388  0.63303324  0.93863427     0.13800
H671        H  0.11951516  0.64170798  0.90887957     0.11500
H672        H  0.12667639  0.67634740  0.95775407     0.13500
C673        C  0.94310680  0.35566671  0.01976046     0.19500
C674        C  0.94684070  0.38209794  0.02643019    -0.18500
C675        C  0.95330076  0.39981471  0.00746300    -0.10800
C676        C  0.95642217  0.39127930  0.98143007     0.21800
C677        C  0.95384239  0.36463827  0.97502749    -0.20200
C678        C  0.94718925  0.34700301  0.99391715    -0.11000
C679        C  0.96280145  0.40933559  0.96049194    -0.15200
C680        C  0.95627306  0.43497294  0.96111706    -0.29000
C681        C  0.93471855  0.33760454  0.03997542    -0.03300
C682        C  0.91913977  0.31741272  0.03432939    -0.39800
H683        H  0.94423221  0.38915749  0.04629321     0.13000
H684        H  0.95605149  0.42003127  0.01331618     0.12600
H685        H  0.95660804  0.35748666  0.95521890     0.12000
H686        H  0.94538314  0.32660209  0.98824884     0.12300
H687        H  0.97191239  0.40097207  0.94309348     0.15000
H688        H  0.94602906  0.44329735  0.97783645     0.13800
H689        H  0.93980731  0.34216406  0.06008168     0.11500
H690        H  0.91233812  0.31409140  0.01452879     0.13500
C691        C  0.89487904  0.38391560  0.85108479     0.19500
C692        C  0.91315750  0.40307577  0.84588746    -0.18500
C693        C  0.92192990  0.42022632  0.86551960    -0.10800
C694        C  0.91271842  0.41852230  0.89100582     0.21800
C695        C  0.89370682  0.40010564  0.89609186    -0.20200
C696        C  0.88496644  0.38283591  0.87645303    -0.11000
C697        C  0.92353258  0.43462797  0.91289055    -0.15200
C698        C  0.94877779  0.44123480  0.91389400    -0.29000
C699        C  0.88800814  0.36488545  0.82974336    -0.03300
C700        C  0.86928090  0.34692896  0.83096326    -0.39800
H701        H  0.92103687  0.40455456  0.82656099     0.13000
H702        H  0.93605200  0.43466647  0.86069744     0.12600
H703        H  0.88630351  0.39840871  0.91558213     0.12000
H704        H  0.87108148  0.36835739  0.88160562     0.12300
H705        H  0.91156655  0.43818105  0.92997460     0.15000
H706        H  0.96094295  0.43604951  0.89733107     0.13800
H707        H  0.89941204  0.36554965  0.81215032     0.11500
H708        H  0.85694043  0.34610471  0.84783858     0.13500
C709        C  0.94608725  0.58259461  0.94576736     0.19500
C710        C  0.95057918  0.56488076  0.96566970    -0.18500
C711        C  0.95250970  0.53795140  0.96023116    -0.10800
C712        C  0.95002395  0.52799927  0.93460093     0.21800
C713        C  0.94502159  0.54558987  0.91474523    -0.20200
C714        C  0.94293601  0.57253591  0.92019116    -0.11000
C715        C  0.95524056  0.49990896  0.92767768    -0.15200
C716        C  0.95205923  0.48037953  0.94428223    -0.29000
C717        C  0.94874982  0.61112358  0.95200179    -0.03300
C718        C  0.94332925  0.63039180  0.93530613    -0.39800
H719        H  0.95363780  0.57198555  0.98544610     0.13000
H720        H  0.95724940  0.52519123  0.97598074     0.12600
H721        H  0.94341242  0.53849976  0.89478872     0.12000
H722        H  0.94019284  0.58529202  0.90406654     0.12300
H723        H  0.96283460  0.49515647  0.90844723     0.15000
H724        H  0.94328231  0.48488607  0.96301576     0.13800
H725        H  0.95869663  0.61635681  0.97004843     0.11500
H726        H  0.93243693  0.62593572  0.91767280     0.13500
C727        C  0.22237454  0.37669874  0.04376310     0.19500
C728        C  0.20750685  0.39943324  0.04935482    -0.18500
C729        C  0.20044160  0.41652608  0.02969837    -0.10800
C730        C  0.20783256  0.41098879  0.00381188     0.21800
C731        C  0.22310904  0.38849784  0.99837371    -0.20200
C732        C  0.23017635  0.37147383  0.01798916    -0.11000
C733        C  0.19931031  0.42710999  0.98159339    -0.15200
C734        C  0.17898442  0.44426171  0.98233380    -0.29000
C735        C  0.22800251  0.35813649  0.06485830    -0.03300
C736        C  0.24760778  0.34031448  0.06392284    -0.39800
H737        H  0.20120751  0.40392697  0.06902523     0.13000
H738        H  0.18919767  0.43386932  0.03503462     0.12600
H739        H  0.22896544  0.38359851  0.97864642     0.12000
H740        H  0.24095649  0.35383684  0.01259231     0.12300
H741        H  0.20921131  0.42312001  0.96336976     0.15000
H742        H  0.16986122  0.44907148  0.00079330     0.13800
H743        H  0.21543290  0.35923147  0.08171140     0.11500
H744        H  0.26116436  0.33985471  0.04788883     0.13500
C745        C  0.19911359  0.37446493  0.85996653     0.19500
C746        C  0.19395520  0.40141008  0.85826196    -0.18500
C747        C  0.18555267  0.41628587  0.88005339    -0.10800
C748        C  0.18171983  0.40431124  0.90388520     0.21800
C749        C  0.18658361  0.37735564  0.90546870    -0.20200
C750        C  0.19532606  0.36261274  0.88387352    -0.11000
C751        C  0.17157356  0.41879888  0.92722378    -0.15200
C752        C  0.17608650  0.44422387  0.93297001    -0.29000
C753        C  0.20696681  0.35881773  0.83633884    -0.03300
C754        C  0.22221360  0.33722180  0.83752401    -0.39800
H755        H  0.19638444  0.41094985  0.84000217     0.13000
H756        H  0.18139696  0.43690910  0.87800560     0.12600
H757        H  0.18352830  0.36761980  0.92352730     0.12000
H758        H  0.19833500  0.34178970  0.88578846     0.12300
H759        H  0.16141269  0.40756883  0.94142207     0.15000
H760        H  0.18718028  0.45555543  0.91962118     0.13800
H761        H  0.20050223  0.36553738  0.81754441     0.11500
H762        H  0.23047630  0.33167293  0.85603802     0.13500
C763        C  0.03659956  0.46125262  0.94987589     0.19500
C764        C  0.05239766  0.46236838  0.97217076    -0.18500
C765        C  0.07949664  0.46243965  0.97012459    -0.10800
C766        C  0.09142107  0.46130919  0.94560638     0.21800
C767        C  0.07562221  0.46086635  0.92332501    -0.20200
C768        C  0.04854202  0.46085406  0.92536114    -0.11000
C769        C  0.12009799  0.46200855  0.94243539    -0.15200
C770        C  0.13719930  0.45467172  0.96088424    -0.29000
C771        C  0.00786533  0.46128214  0.95304975    -0.03300
C772        C  0.99128464  0.45284698  0.93438653    -0.39800
H773        H  0.04373261  0.46319832  0.99127089     0.13000
H774        H  0.09090025  0.46393095  0.98780401     0.12600
H775        H  0.08427848  0.46059664  0.90422270     0.12000
H776        H  0.03720320  0.46107186  0.90762974     0.12300
H777        H  0.12729660  0.46799435  0.92388064     0.15000
H778        H  0.12969919  0.44623603  0.97832354     0.13800
H779        H  0.99998649  0.46760276  0.97176368     0.11500
H780        H  0.99903477  0.44535282  0.91608248     0.13500
C781        C  0.16722236  0.58770326  0.94848295     0.19500
C782        C  0.16964430  0.57287160  0.97087328    -0.18500
C783        C  0.17056554  0.54549550  0.96911811    -0.10800
C784        C  0.16892511  0.53230272  0.94478729     0.21800
C785        C  0.16658011  0.54719351  0.92244486    -0.20200
C786        C  0.16573850  0.57449940  0.92419817    -0.11000
C787        C  0.16693710  0.50334137  0.94184292    -0.15200
C788        C  0.17336076  0.48627035  0.96039186    -0.29000
C789        C  0.16392914  0.61662605  0.95127269    -0.03300
C790        C  0.16881044  0.63326588  0.93214290    -0.39800
H791        H  0.17034325  0.58251481  0.98986176     0.13000
H792        H  0.17154640  0.53491197  0.98692711     0.12600
H793        H  0.16474819  0.53762520  0.90349984     0.12000
H794        H  0.16286249  0.58505765  0.90653177     0.12300
H795        H  0.15942166  0.49582113  0.92346846     0.15000
H796        H  0.18294821  0.49349989  0.97793451     0.13800
H797        H  0.15651093  0.62459485  0.96961359     0.11500
H798        H  0.17700534  0.62568773  0.91402518     0.13500
C799        C  0.00473449  0.94904593  0.30306750     0.19500
C800        C  0.98315431  0.96217445  0.29247565    -0.18500
C801        C  0.96743651  0.94989105  0.27368241    -0.10800
C802        C  0.97308561  0.92409404  0.26485016     0.21800
C803        C  0.99453401  0.91088107  0.27571819    -0.20200
C804        C  0.01015847  0.92313755  0.29463464    -0.11000
C805        C  0.95834608  0.91099202  0.24320449    -0.15200
C806        C  0.93455727  0.91890196  0.23521846    -0.29000
C807        C  0.02347817  0.96413014  0.31937490    -0.03300
C808        C  0.04005933  0.95306075  0.33649051    -0.39800
H809        H  0.97893826  0.98234056  0.29816356     0.13000
H810        H  0.95166048  0.96121721  0.26542131     0.12600
H811        H  0.99962300  0.89118803  0.26906877     0.12000
H812        H  0.02724486  0.91273117  0.30155390     0.12300
H813        H  0.96752729  0.89414218  0.23350697     0.15000
H814        H  0.92447517  0.93488790  0.24536141     0.13800
H815        H  0.02528522  0.98449541  0.31475333     0.11500
H816        H  0.03733682  0.93276362  0.34111531     0.13500
C817        C  0.72785385  0.94620999  0.08457096     0.19500
C818        C  0.72241278  0.95216124  0.05868024    -0.18500
C819        C  0.70427565  0.97187521  0.05268425    -0.10800
C820        C  0.69090082  0.98591205  0.07260356     0.21800
C821        C  0.69517141  0.97870563  0.09835801    -0.20200
C822        C  0.71326215  0.95903861  0.10431371    -0.11000
C823        C  0.67459924  0.00976627  0.06803237    -0.15200
C824        C  0.66888633  0.01925638  0.04450088    -0.29000
C825        C  0.74970122  0.92766047  0.09035191    -0.03300
C826        C  0.76337251  0.92919301  0.11269603    -0.39800
H827        H  0.73311706  0.94236414  0.04306353     0.13000
H828        H  0.70181218  0.97656713  0.03254054     0.12600
H829        H  0.68503928  0.98892554  0.11411051     0.12000
H830        H  0.71600512  0.95430794  0.12445420     0.12300
H831        H  0.66898761  0.02160847  0.08502597     0.15000
H832        H  0.67328418  0.00765918  0.02710093     0.13800
H833        H  0.75623276  0.91418304  0.07496597     0.11500
H834        H  0.75803578  0.94376138  0.12751970     0.13500
C835        C  0.94171615  0.71214071  0.99208288     0.19500
C836        C  0.95617895  0.73342690  0.00150854    -0.18500
C837        C  0.94587735  0.75096780  0.02023077    -0.10800
C838        C  0.92059957  0.74779971  0.02973681     0.21800
C839        C  0.90626827  0.72624840  0.02061823    -0.20200
C840        C  0.91676976  0.70842124  0.00213217    -0.11000
C841        C  0.90802074  0.76773843  0.04744752    -0.15200
C842        C  0.92144961  0.78283766  0.06445819    -0.29000
C843        C  0.95190002  0.69663592  0.96942715    -0.03300
C844        C  0.94643324  0.67139219  0.96370482    -0.39800
H845        H  0.97529528  0.73693077  0.99376816     0.13000
H846        H  0.95728436  0.76764830  0.02623803     0.12600
H847        H  0.88665112  0.72351312  0.02742879     0.12000
H848        H  0.90484670  0.69262919  0.99478275     0.12300
H849        H  0.88695471  0.76969472  0.04673447     0.15000
H850        H  0.94224890  0.77964321  0.06683545     0.13800
H851        H  0.96356055  0.70732435  0.95619790     0.11500
H852        H  0.93421560  0.66094921  0.97682059     0.13500
loop_ 
_geom_bond_atom_site_label_1 
_geom_bond_atom_site_label_2 
_geom_bond_distance 
_geom_bond_site_symmetry_2 
_ccdc_geom_bond_type 
N1            N2   1.325       .  A
N1            C5   1.346       .  A
N1           Cu9   2.087       .  S
N2            C3   1.349       .  A
N2           Cu8   2.091       .  S
C3            C4   1.387       .  A
C3            H6   1.082       .  S
C4            C5   1.382       .  A
C4          C842   1.482       .  S
C5            H7   1.082       .  S
Cu8          N11   2.090       .  S
Cu9          N19   2.085       .  S
Cu10         N12   2.069       .  S
Cu10         N18   2.069       .  S
N11          N12   1.322       .  A
N11          C15   1.351       .  A
N12          C13   1.342       .  A
C13          C14   1.379       .  A
C13          H16   1.082       .  S
C14          C15   1.390       .  A
C14         C826   1.479       .  S
C15          H17   1.081       .  S
N18          N19   1.321       .  A
N18          C22   1.344       .  A
N19          C20   1.349       .  A
C20          C21   1.390       .  A
C20          H23   1.082       .  S
C21          C22   1.382       .  A
C21         C806   1.482       .  S
C22          H24   1.082       .  S
C25         C734   1.538       .  S
C25         C752   1.536       .  S
C25         C770   1.531       .  S
C25         C788   1.532       .  S
C26         C680   1.529       .  S
C26         C698   1.530       .  S
C26         C716   1.529       .  S
C26         C772   1.527       .  S
C27         C646   1.531       .  S
C27         C662   1.538       .  S
C27         C718   1.535       .  S
C27         C844   1.537       .  S
C28         C608   1.528       .  S
C28         C626   1.528       .  S
C28         C664   1.525       .  S
C28         C790   1.532       .  S
N29          N30   1.323       .  A
N29          C33   1.344       .  A
N29         Cu37   2.076       .  S
N30          C31   1.348       .  A
N30         Cu36   2.084       .  S
C31          C32   1.389       .  A
C31          H34   1.081       .  S
C32          C33   1.382       .  A
C32         C610   1.481       .  S
C33          H35   1.082       .  S
Cu36         N39   2.084       .  S
Cu37         N47   2.076       .  S
Cu38         N40   2.072       .  S
Cu38         N46   2.071       .  S
N39          N40   1.323       .  A
N39          C43   1.347       .  A
N40          C41   1.345       .  A
C41          C42   1.381       .  A
C41          H44   1.082       .  S
C42          C43   1.387       .  A
C42         C590   1.477       .  S
C43          H45   1.082       .  S
N46          N47   1.322       .  A
N46          C50   1.345       .  A
N47          C48   1.346       .  A
C48          C49   1.383       .  A
C48          H51   1.082       .  S
C49          C50   1.385       .  A
C49         C572   1.477       .  S
C50          H52   1.082       .  S
N53          N54   1.322       .  A
N53          C57   1.344       .  A
N53         Cu61   2.075       .  S
N54          C55   1.346       .  A
N54         Cu60   2.074       .  S
C55          C56   1.383       .  A
C55          H58   1.082       .  S
C56          C57   1.387       .  A
C56         C556   1.480       .  S
C57          H59   1.081       .  S
Cu60         N63   2.074       .  S
Cu61         N71   2.076       .  S
Cu62         N64   2.076       .  S
Cu62         N70   2.076       .  S
N63          N64   1.322       .  A
N63          C67   1.345       .  A
N64          C65   1.345       .  A
C65          C66   1.383       .  A
C65          H68   1.082       .  S
C66          C67   1.386       .  A
C66         C536   1.479       .  S
C67          H69   1.081       .  S
N70          N71   1.322       .  A
N70          C74   1.345       .  A
N71          C72   1.346       .  A
C72          C73   1.384       .  A
C72          H75   1.082       .  S
C73          C74   1.388       .  A
C73         C700   1.482       .  S
C74          H76   1.081       .  S
C77         C482   1.531       .  S
C77         C502   1.534       .  S
C77         C518   1.532       .  S
C77         C592   1.533       .  S
C78         C428   1.534       .  S
C78         C446   1.529       .  S
C78         C464   1.530       .  S
C78         C500   1.530       .  S
C79         C392   1.531       .  S
C79         C410   1.527       .  S
C79         C466   1.528       .  S
C79         C554   1.529       .  S
C80         C374   1.529       .  S
C80         C412   1.526       .  S
C80         C520   1.529       .  S
C80         C824   1.531       .  S
N81          N82   1.324       .  A
N81          C85   1.345       .  A
N81         Cu89   2.083       .  S
N82          C83   1.349       .  A
N82         Cu88   2.088       .  S
C83          C84   1.387       .  A
C83          H86   1.082       .  S
C84          C85   1.382       .  A
C84         C356   1.481       .  S
C85          H87   1.082       .  S
Cu88         N91   2.088       .  S
Cu89         N99   2.082       .  S
Cu90         N92   2.066       .  S
Cu90         N98   2.066       .  S
N91          N92   1.323       .  A
N91          C95   1.349       .  A
N92          C93   1.342       .  A
C93          C94   1.378       .  A
C93          H96   1.082       .  S
C94          C95   1.388       .  A
C94         C682   1.476       .  S
C95          H97   1.081       .  S
N98          N99   1.321       .  A
N98         C102   1.344       .  A
N99         C100   1.347       .  A
C100        C101   1.389       .  A
C100        H103   1.081       .  S
C101        C102   1.382       .  A
C101        C376   1.481       .  S
C102        H104   1.082       .  S
N105        N106   1.322       .  A
N105        C109   1.348       .  A
N105       Cu113   2.083       .  S
N106        C107   1.343       .  A
N106       Cu112   2.066       .  S
C107        C108   1.380       .  A
C107        H110   1.082       .  S
C108        C109   1.388       .  A
C108        C448   1.475       .  S
C109        H111   1.081       .  S
Cu112       N115   2.066       .  S
Cu113       N123   2.085       .  S
Cu114       N116   2.090       .  S
Cu114       N122   2.091       .  S
N115        N116   1.322       .  A
N115        C119   1.342       .  A
N116        C117   1.351       .  A
C117        C118   1.390       .  A
C117        H120   1.082       .  S
C118        C119   1.380       .  A
C118        C628   1.480       .  S
C119        H121   1.082       .  S
N122        N123   1.325       .  A
N122        C126   1.346       .  A
N123        C124   1.348       .  A
C124        C125   1.386       .  A
C124        H127   1.082       .  S
C125        C126   1.383       .  A
C125        C338   1.480       .  S
C126        H128   1.082       .  S
C129        C284   1.529       .  S
C129        C302   1.529       .  S
C129        C320   1.533       .  S
C129        C358   1.533       .  S
C130        C266   1.528       .  S
C130        C304   1.533       .  S
C130        C574   1.526       .  S
C130        C808   1.536       .  S
C131        C230   1.528       .  S
C131        C248   1.531       .  S
C131        C268   1.525       .  S
C131        C340   1.533       .  S
C132        C212   1.535       .  S
C132        C250   1.530       .  S
C132        C322   1.532       .  S
C132        C538   1.530       .  S
N133        N134   1.324       .  A
N133        C137   1.341       .  A
N133       Cu141   2.070       .  S
N134        C135   1.353       .  A
N134       Cu140   2.102       .  S
C135        C136   1.391       .  A
C135        H138   1.082       .  S
C136        C137   1.378       .  A
C136        C214   1.479       .  S
C137        H139   1.082       .  S
Cu140       N143   2.102       .  S
Cu141       N151   2.070       .  S
Cu142       N144   2.078       .  S
Cu142       N150   2.077       .  S
N143        N144   1.325       .  A
N143        C147   1.351       .  A
N144        C145   1.343       .  A
C145        C146   1.379       .  A
C145        H148   1.082       .  S
C146        C147   1.390       .  A
C146        C754   1.481       .  S
C147        H149   1.082       .  S
N150        N151   1.319       .  A
N150        C154   1.347       .  A
N151        C152   1.345       .  A
C152        C153   1.384       .  A
C152        H155   1.082       .  S
C153        C154   1.389       .  A
C153        C430   1.483       .  S
C154        H156   1.081       .  S
N157        N158   1.323       .  A
N157        C161   1.349       .  A
N157       Cu165   2.087       .  S
N158        C159   1.343       .  A
N158       Cu164   2.072       .  S
C159        C160   1.381       .  A
C159        H162   1.082       .  S
C160        C161   1.389       .  A
C160        C286   1.480       .  S
C161        H163   1.081       .  S
Cu164       N167   2.072       .  S
Cu165       N175   2.087       .  S
Cu166       N168   2.080       .  S
Cu166       N174   2.081       .  S
N167        N168   1.322       .  A
N167        C171   1.346       .  A
N168        C169   1.345       .  A
C169        C170   1.384       .  A
C169        H172   1.082       .  S
C170        C171   1.387       .  A
C170        C736   1.480       .  S
C171        H173   1.081       .  S
N174        N175   1.323       .  A
N174        C178   1.347       .  A
N175        C176   1.346       .  A
C176        C177   1.384       .  A
C176        H179   1.082       .  S
C177        C178   1.387       .  A
C177        C484   1.483       .  S
C178        H180   1.080       .  S
N181        N182   1.321       .  A
N181        C185   1.344       .  A
N181       Cu189   2.071       .  S
N182        C183   1.347       .  A
N182       Cu188   2.077       .  S
C183        C184   1.389       .  A
C183        H186   1.081       .  S
C184        C185   1.382       .  A
C184        C232   1.481       .  S
C185        H187   1.082       .  S
Cu188       N191   2.077       .  S
Cu189       N199   2.072       .  S
Cu190       N192   2.089       .  S
Cu190       N198   2.089       .  S
N191        N192   1.324       .  A
N191        C195   1.344       .  A
N192        C193   1.349       .  A
C193        C194   1.387       .  A
C193        H196   1.081       .  S
C194        C195   1.380       .  A
C194        C394   1.477       .  S
C195        H197   1.082       .  S
N198        N199   1.323       .  A
N198        C202   1.350       .  A
N199        C200   1.343       .  A
C200        C201   1.380       .  A
C200        H203   1.082       .  S
C201        C202   1.389       .  A
C201        C644   1.481       .  S
C202        H204   1.082       .  S
C205        C206   1.406       .  A
C205        C210   1.405       .  A
C205        C213   1.490       .  S
C206        C207   1.407       .  A
C206        H215   1.083       .  S
C207        C208   1.408       .  A
C207        H216   1.082       .  S
C208        C209   1.402       .  A
C208        C211   1.485       .  S
C209        C210   1.394       .  A
C209        H217   1.084       .  S
C210        H218   1.083       .  S
C211        H219   1.088       .  S
C211        C212   1.353       .  D
C212        H220   1.086       .  S
C213        H221   1.086       .  S
C213        C214   1.345       .  D
C214        H222   1.086       .  S
C223        C224   1.404       .  A
C223        C228   1.410       .  A
C223        C231   1.493       .  S
C224        C225   1.397       .  A
C224        H233   1.083       .  S
C225        C226   1.407   1_655  A
C225        H234   1.081       .  S
C226        C227   1.403       .  A
C226        C229   1.490       .  S
C227        C228   1.401   1_455  A
C227        H235   1.083       .  S
C228        H236   1.080       .  S
C229        H237   1.087       .  S
C229        C230   1.349       .  D
C230        H238   1.085       .  S
C231        H239   1.086       .  S
C231        C232   1.346       .  D
C232        H240   1.083       .  S
C241        C242   1.403       .  A
C241        C246   1.409       .  A
C241        C249   1.491       .  S
C242        C243   1.399       .  A
C242        H251   1.083       .  S
C243        C244   1.410       .  A
C243        H252   1.080       .  S
C244        C245   1.403       .  A
C244        C247   1.492       .  S
C245        C246   1.399       .  A
C245        H253   1.083       .  S
C246        H254   1.080       .  S
C247        H255   1.085       .  S
C247        C248   1.349   1_545  D
C248        H256   1.085       .  S
C249        H257   1.086       .  S
C249        C250   1.349       .  D
C250        H258   1.083       .  S
C259        C260   1.410       .  A
C259        C264   1.403       .  A
C259        C267   1.489       .  S
C260        C261   1.404       .  A
C260        H269   1.080       .  S
C261        C262   1.404       .  A
C261        H270   1.083       .  S
C262        C263   1.407       .  A
C262        C265   1.490       .  S
C263        C264   1.395       .  A
C263        H271   1.082       .  S
C264        H272   1.084       .  S
C265        H273   1.086       .  S
C265        C266   1.348       .  D
C266        H274   1.087       .  S
C267        H275   1.087       .  S
C267        C268   1.349       .  D
C268        H276   1.085       .  S
C277        C278   1.403       .  A
C277        C282   1.410       .  A
C277        C285   1.491       .  S
C278        C279   1.398       .  A
C278        H287   1.083       .  S
C279        C280   1.408       .  A
C279        H288   1.081       .  S
C280        C281   1.404       .  A
C280        C283   1.490       .  S
C281        C282   1.401       .  A
C281        H289   1.083       .  S
C282        H290   1.081       .  S
C283        H291   1.087       .  S
C283        C284   1.350       .  D
C284        H292   1.085       .  S
C285        H293   1.086       .  S
C285        C286   1.346       .  D
C286        H294   1.084       .  S
C295        C296   1.403       .  A
C295        C300   1.408       .  A
C295        C303   1.484       .  S
C296        C297   1.397       .  A
C296        H305   1.083       .  S
C297        C298   1.406       .  A
C297        H306   1.083       .  S
C298        C299   1.402       .  A
C298        C301   1.481       .  S
C299        C300   1.398       .  A
C299        H307   1.084       .  S
C300        H308   1.081       .  S
C301        H309   1.087       .  S
C301        C302   1.347       .  D
C302        H310   1.087       .  S
C303        H311   1.087       .  S
C303        C304   1.349   1_545  D
C304        H312   1.086       .  S
C313        C314   1.405       .  A
C313        C318   1.410       .  A
C313        C321   1.498       .  S
C314        C315   1.403       .  A
C314        H323   1.083       .  S
C315        C316   1.410       .  A
C315        H324   1.081       .  S
C316        C317   1.406       .  A
C316        C319   1.498       .  S
C317        C318   1.404       .  A
C317        H325   1.083       .  S
C318        H326   1.080       .  S
C319        H327   1.087       .  S
C319        C320   1.353       .  D
C320        H328   1.085       .  S
C321        H329   1.087       .  S
C321        C322   1.352       .  D
C322        H330   1.085       .  S
C331        C332   1.402       .  A
C331        C336   1.406       .  A
C331        C339   1.483       .  S
C332        C333   1.398       .  A
C332        H341   1.084       .  S
C333        C334   1.406       .  A
C333        H342   1.082       .  S
C334        C335   1.405       .  A
C334        C337   1.487       .  S
C335        C336   1.403       .  A
C335        H343   1.083       .  S
C336        H344   1.082       .  S
C337        H345   1.087       .  S
C337        C338   1.347       .  D
C338        H346   1.086       .  S
C339        H347   1.087       .  S
C339        C340   1.349       .  D
C340        H348   1.086       .  S
C349        C350   1.404   1_455  A
C349        C354   1.405   1_455  A
C349        C357   1.485       .  S
C350        C351   1.397       .  A
C350        H359   1.084       .  S
C351        C352   1.406       .  A
C351        H360   1.082       .  S
C352        C353   1.407       .  A
C352        C355   1.491       .  S
C353        C354   1.405       .  A
C353        H361   1.083       .  S
C354        H362   1.082   1_655  S
C355        H363   1.086       .  S
C355        C356   1.347       .  D
C356        H364   1.085       .  S
C357        H365   1.088       .  S
C357        C358   1.354       .  D
C358        H366   1.086       .  S
C367        C368   1.403       .  A
C367        C372   1.410       .  A
C367        C375   1.490       .  S
C368        C369   1.397       .  A
C368        H377   1.083       .  S
C369        C370   1.407       .  A
C369        H378   1.082       .  S
C370        C371   1.403       .  A
C370        C373   1.490       .  S
C371        C372   1.402       .  A
C371        H379   1.083       .  S
C372        H380   1.081       .  S
C373        H381   1.087       .  S
C373        C374   1.348       .  D
C374        H382   1.086       .  S
C375        H383   1.086       .  S
C375        C376   1.346       .  D
C376        H384   1.085       .  S
C385        C386   1.406       .  A
C385        C390   1.405       .  A
C385        C393   1.486       .  S
C386        C387   1.405       .  A
C386        H395   1.083       .  S
C387        C388   1.406   1_565  A
C387        H396   1.083       .  S
C388        C389   1.403       .  A
C388        C391   1.482       .  S
C389        C390   1.394   1_545  A
C389        H397   1.083       .  S
C390        H398   1.083       .  S
C391        H399   1.087       .  S
C391        C392   1.353       .  D
C392        H400   1.086       .  S
C393        H401   1.086       .  S
C393        C394   1.346       .  D
C394        H402   1.086       .  S
C403        C404   1.401       .  A
C403        C408   1.407       .  A
C403        C411   1.483       .  S
C404        C405   1.398       .  A
C404        H413   1.083       .  S
C405        C406   1.409       .  A
C405        H414   1.082       .  S
C406        C407   1.402       .  A
C406        C409   1.486       .  S
C407        C408   1.398       .  A
C407        H415   1.083       .  S
C408        H416   1.083       .  S
C409        H417   1.087       .  S
C409        C410   1.347       .  D
C410        H418   1.086       .  S
C411        H419   1.087   1_556  S
C411        C412   1.346   1_556  D
C412        H420   1.087       .  S
C421        C422   1.406       .  A
C421        C426   1.409       .  A
C421        C429   1.494       .  S
C422        C423   1.401       .  A
C422        H431   1.083       .  S
C423        C424   1.407       .  A
C423        H432   1.082       .  S
C424        C425   1.404       .  A
C424        C427   1.491       .  S
C425        C426   1.400       .  A
C425        H433   1.083       .  S
C426        H434   1.081       .  S
C427        H435   1.087       .  S
C427        C428   1.351       .  D
C428        H436   1.085       .  S
C429        H437   1.085       .  S
C429        C430   1.348       .  D
C430        H438   1.083       .  S
C439        C440   1.403   1_565  A
C439        C444   1.407   1_565  A
C439        C447   1.484       .  S
C440        C441   1.400       .  A
C440        H449   1.084   1_545  S
C441        C442   1.406       .  A
C441        H450   1.082       .  S
C442        C443   1.401       .  A
C442        C445   1.479       .  S
C443        C444   1.397       .  A
C443        H451   1.084       .  S
C444        H452   1.082   1_545  S
C445        H453   1.087       .  S
C445        C446   1.347       .  D
C446        H454   1.086       .  S
C447        H455   1.087       .  S
C447        C448   1.344       .  D
C448        H456   1.086       .  S
C457        C458   1.404       .  A
C457        C462   1.409       .  A
C457        C465   1.493       .  S
C458        C459   1.404       .  A
C458        H467   1.083       .  S
C459        C460   1.411       .  A
C459        H468   1.081       .  S
C460        C461   1.403       .  A
C460        C463   1.495       .  S
C461        C462   1.399       .  A
C461        H469   1.083       .  S
C462        H470   1.082       .  S
C463        H471   1.087       .  S
C463        C464   1.349       .  D
C464        H472   1.084       .  S
C465        H473   1.087       .  S
C465        C466   1.349       .  D
C466        H474   1.086       .  S
C475        C476   1.405       .  A
C475        C480   1.408       .  A
C475        C483   1.494       .  S
C476        C477   1.400       .  A
C476        H485   1.084       .  S
C477        C478   1.409       .  A
C477        H486   1.080       .  S
C478        C479   1.405       .  A
C478        C481   1.495       .  S
C479        C480   1.400       .  A
C479        H487   1.083       .  S
C480        H488   1.080       .  S
C481        H489   1.087       .  S
C481        C482   1.350       .  D
C482        H490   1.082       .  S
C483        H491   1.086       .  S
C483        C484   1.349       .  D
C484        H492   1.084       .  S
C493        C494   1.402       .  A
C493        C498   1.409       .  A
C493        C501   1.489       .  S
C494        C495   1.397       .  A
C494        H503   1.084       .  S
C495        C496   1.408       .  A
C495        H504   1.082       .  S
C496        C497   1.403       .  A
C496        C499   1.488       .  S
C497        C498   1.402       .  A
C497        H505   1.084       .  S
C498        H506   1.082       .  S
C499        H507   1.087       .  S
C499        C500   1.348       .  D
C500        H508   1.086       .  S
C501        H509   1.085   1_556  S
C501        C502   1.348   1_556  D
C502        H510   1.087       .  S
C511        C512   1.404       .  A
C511        C516   1.407       .  A
C511        C519   1.487       .  S
C512        C513   1.398       .  A
C512        H521   1.083   1_545  S
C513        C514   1.407       .  A
C513        H522   1.083       .  S
C514        C515   1.404       .  A
C514        C517   1.487       .  S
C515        C516   1.402       .  A
C515        H523   1.083       .  S
C516        H524   1.082       .  S
C517        H525   1.087       .  S
C517        C518   1.349       .  D
C518        H526   1.087       .  S
C519        H527   1.087       .  S
C519        C520   1.351       .  D
C520        H528   1.086       .  S
C529        C530   1.402       .  A
C529        C534   1.407       .  A
C529        C537   1.487   1_655  S
C530        C531   1.397       .  A
C530        H539   1.083   1_655  S
C531        C532   1.408       .  A
C531        H540   1.080       .  S
C532        C533   1.405       .  A
C532        C535   1.490       .  S
C533        C534   1.400       .  A
C533        H541   1.083       .  S
C534        H542   1.081       .  S
C535        H543   1.086       .  S
C535        C536   1.347       .  D
C536        H544   1.083       .  S
C537        H545   1.087       .  S
C537        C538   1.348       .  D
C538        H546   1.086       .  S
C547        C548   1.403       .  A
C547        C552   1.408       .  A
C547        C555   1.487       .  S
C548        C549   1.397       .  A
C548        H557   1.083       .  S
C549        C550   1.408       .  A
C549        H558   1.081       .  S
C550        C551   1.404       .  A
C550        C553   1.488       .  S
C551        C552   1.400       .  A
C551        H559   1.083       .  S
C552        H560   1.081       .  S
C553        H561   1.087       .  S
C553        C554   1.349       .  D
C554        H562   1.085       .  S
C555        H563   1.085       .  S
C555        C556   1.347       .  D
C556        H564   1.084       .  S
C565        C566   1.403       .  A
C565        C570   1.405       .  A
C565        C573   1.480       .  S
C566        C567   1.397       .  A
C566        H575   1.084       .  S
C567        C568   1.406       .  A
C567        H576   1.082       .  S
C568        C569   1.404       .  A
C568        C571   1.483       .  S
C569        C570   1.400       .  A
C569        H577   1.083       .  S
C570        H578   1.082       .  S
C571        H579   1.086       .  S
C571        C572   1.345       .  D
C572        H580   1.086       .  S
C573        H581   1.087       .  S
C573        C574   1.350       .  D
C574        H582   1.087       .  S
C583        C584   1.404   1_565  A
C583        C588   1.408       .  A
C583        C591   1.489   1_565  S
C584        C585   1.399   1_545  A
C584        H593   1.083       .  S
C585        C586   1.406       .  A
C585        H594   1.082       .  S
C586        C587   1.402       .  A
C586        C589   1.484       .  S
C587        C588   1.399       .  A
C587        H595   1.084       .  S
C588        H596   1.081       .  S
C589        H597   1.087       .  S
C589        C590   1.344       .  D
C590        H598   1.086       .  S
C591        H599   1.085       .  S
C591        C592   1.350       .  D
C592        H600   1.085       .  S
C601        C602   1.404   1_554  A
C601        C606   1.410       .  A
C601        C609   1.488       .  S
C602        C603   1.397       .  A
C602        H611   1.084       .  S
C603        C604   1.404       .  A
C603        H612   1.083       .  S
C604        C605   1.401   1_556  A
C604        C607   1.481       .  S
C605        C606   1.402       .  A
C605        H613   1.084       .  S
C606        H614   1.081       .  S
C607        H615   1.084       .  S
C607        C608   1.347       .  D
C608        H616   1.089       .  S
C609        H617   1.086       .  S
C609        C610   1.346       .  D
C610        H618   1.085       .  S
C619        C620   1.406       .  A
C619        C624   1.410       .  A
C619        C627   1.496       .  S
C620        C621   1.402       .  A
C620        H629   1.083       .  S
C621        C622   1.408       .  A
C621        H630   1.082       .  S
C622        C623   1.402       .  A
C622        C625   1.488       .  S
C623        C624   1.398       .  A
C623        H631   1.083       .  S
C624        H632   1.080       .  S
C625        H633   1.088       .  S
C625        C626   1.348       .  D
C626        H634   1.087       .  S
C627        H635   1.086       .  S
C627        C628   1.347       .  D
C628        H636   1.083       .  S
C637        C638   1.409       .  A
C637        C642   1.405       .  A
C637        C645   1.495       .  S
C638        C639   1.400       .  A
C638        H647   1.079       .  S
C639        C640   1.409       .  A
C639        H648   1.081       .  S
C640        C641   1.404       .  A
C640        C643   1.494       .  S
C641        C642   1.400       .  A
C641        H649   1.083       .  S
C642        H650   1.084       .  S
C643        H651   1.086       .  S
C643        C644   1.347       .  D
C644        H652   1.083       .  S
C645        H653   1.087       .  S
C645        C646   1.352       .  D
C646        H654   1.082       .  S
C655        C656   1.403       .  A
C655        C660   1.408       .  A
C655        C663   1.485       .  S
C656        C657   1.398       .  A
C656        H665   1.083       .  S
C657        C658   1.407       .  A
C657        H666   1.082       .  S
C658        C659   1.402       .  A
C658        C661   1.484       .  S
C659        C660   1.398       .  A
C659        H667   1.083       .  S
C660        H668   1.081       .  S
C661        H669   1.080   1_455  S
C661        C662   1.347   1_455  D
C662        H670   1.086       .  S
C663        H671   1.087       .  S
C663        C664   1.347       .  D
C664        H672   1.086       .  S
C673        C674   1.403       .  A
C673        C678   1.407   1_554  A
C673        C681   1.486       .  S
C674        C675   1.400       .  A
C674        H683   1.084       .  S
C675        C676   1.408   1_554  A
C675        H684   1.081       .  S
C676        C677   1.403       .  A
C676        C679   1.485       .  S
C677        C678   1.397       .  A
C677        H685   1.084       .  S
C678        H686   1.082       .  S
C679        H687   1.087       .  S
C679        C680   1.349       .  D
C680        H688   1.085       .  S
C681        H689   1.087       .  S
C681        C682   1.344       .  D
C682        H690   1.086       .  S
C691        C692   1.405       .  A
C691        C696   1.410       .  A
C691        C699   1.492       .  S
C692        C693   1.398       .  A
C692        H701   1.084       .  S
C693        C694   1.406       .  A
C693        H702   1.082       .  S
C694        C695   1.403       .  A
C694        C697   1.488       .  S
C695        C696   1.401       .  A
C695        H703   1.084       .  S
C696        H704   1.080       .  S
C697        H705   1.087       .  S
C697        C698   1.348       .  D
C698        H706   1.086       .  S
C699        H707   1.085       .  S
C699        C700   1.347       .  D
C700        H708   1.083       .  S
C709        C710   1.405       .  A
C709        C714   1.410       .  A
C709        C717   1.495       .  S
C710        C711   1.401       .  A
C710        H719   1.083       .  S
C711        C712   1.407       .  A
C711        H720   1.082       .  S
C712        C713   1.404       .  A
C712        C715   1.491       .  S
C713        C714   1.402       .  A
C713        H721   1.084       .  S
C714        H722   1.080       .  S
C715        H723   1.087       .  S
C715        C716   1.350       .  D
C716        H724   1.086       .  S
C717        H725   1.087       .  S
C717        C718   1.353       .  D
C718        H726   1.085       .  S
C727        C728   1.404       .  A
C727        C732   1.407       .  A
C727        C735   1.490       .  S
C728        C729   1.401       .  A
C728        H737   1.083       .  S
C729        C730   1.409       .  A
C729        H738   1.080       .  S
C730        C731   1.404   1_554  A
C730        C733   1.491   1_554  S
C731        C732   1.397   1_556  A
C731        H739   1.083       .  S
C732        H740   1.081       .  S
C733        H741   1.084       .  S
C733        C734   1.352       .  D
C734        H742   1.084   1_556  S
C735        H743   1.086       .  S
C735        C736   1.347       .  D
C736        H744   1.085       .  S
C745        C746   1.406       .  A
C745        C750   1.407       .  A
C745        C753   1.491       .  S
C746        C747   1.404       .  A
C746        H755   1.083       .  S
C747        C748   1.407       .  A
C747        H756   1.082       .  S
C748        C749   1.403       .  A
C748        C751   1.487       .  S
C749        C750   1.398       .  A
C749        H757   1.083       .  S
C750        H758   1.082       .  S
C751        H759   1.088       .  S
C751        C752   1.351       .  D
C752        H760   1.086       .  S
C753        H761   1.086       .  S
C753        C754   1.346       .  D
C754        H762   1.086       .  S
C763        C764   1.403       .  A
C763        C768   1.409       .  A
C763        C771   1.488       .  S
C764        C765   1.398       .  A
C764        H773   1.083       .  S
C765        C766   1.408       .  A
C765        H774   1.082       .  S
C766        C767   1.402       .  A
C766        C769   1.486       .  S
C767        C768   1.397       .  A
C767        H775   1.083       .  S
C768        H776   1.081       .  S
C769        H777   1.083       .  S
C769        C770   1.348       .  D
C770        H778   1.086       .  S
C771        H779   1.087   1_455  S
C771        C772   1.348   1_455  D
C772        H780   1.084       .  S
C781        C782   1.405       .  A
C781        C786   1.407       .  A
C781        C789   1.490       .  S
C782        C783   1.402       .  A
C782        H791   1.084       .  S
C783        C784   1.409       .  A
C783        H792   1.081       .  S
C784        C785   1.404       .  A
C784        C787   1.492       .  S
C785        C786   1.399       .  A
C785        H793   1.084       .  S
C786        H794   1.081       .  S
C787        H795   1.083       .  S
C787        C788   1.351       .  D
C788        H796   1.085       .  S
C789        H797   1.087       .  S
C789        C790   1.351       .  D
C790        H798   1.085       .  S
C799        C800   1.403   1_455  A
C799        C804   1.407       .  A
C799        C807   1.487       .  S
C800        C801   1.399       .  A
C800        H809   1.083       .  S
C801        C802   1.410       .  A
C801        H810   1.081       .  S
C802        C803   1.405       .  A
C802        C805   1.494       .  S
C803        C804   1.400   1_655  A
C803        H811   1.083       .  S
C804        H812   1.083       .  S
C805        H813   1.086       .  S
C805        C806   1.347       .  D
C806        H814   1.083       .  S
C807        H815   1.083       .  S
C807        C808   1.352       .  D
C808        H816   1.086       .  S
C817        C818   1.403       .  A
C817        C822   1.408       .  A
C817        C825   1.492       .  S
C818        C819   1.401       .  A
C818        H827   1.083       .  S
C819        C820   1.411       .  A
C819        H828   1.079       .  S
C820        C821   1.404       .  A
C820        C823   1.492   1_565  S
C821        C822   1.398       .  A
C821        H829   1.084       .  S
C822        H830   1.081       .  S
C823        H831   1.088       .  S
C823        C824   1.349       .  D
C824        H832   1.083       .  S
C825        H833   1.086       .  S
C825        C826   1.346       .  D
C826        H834   1.085       .  S
C835        C836   1.404   1_556  A
C835        C840   1.406   1_556  A
C835        C843   1.485       .  S
C836        C837   1.398       .  A
C836        H845   1.084   1_554  S
C837        C838   1.407       .  A
C837        H846   1.082       .  S
C838        C839   1.406       .  A
C838        C841   1.490       .  S
C839        C840   1.403       .  A
C839        H847   1.084       .  S
C840        H848   1.082   1_554  S
C841        H849   1.086       .  S
C841        C842   1.347       .  D
C842        H850   1.086       .  S
C843        H851   1.080       .  S
C843        C844   1.352       .  D
C844        H852   1.086       .  S
