geometry optimzed in LAMMPS
_audit_creation_date              2020-11-30 
_audit_creation_method            'lammps2cif' 
_symmetry_space_group_name_H-M    'P1' 
_symmetry_Int_Tables_number       1 
_symmetry_cell_setting            triclinic 
loop_ 
_symmetry_equiv_pos_as_xyz 
  x,y,z 
_cell_length_a                    34.65457298200419 
_cell_length_b                    34.76598145095345 
_cell_length_c                    34.81132968677974 
_cell_angle_alpha                 90.03363482023367 
_cell_angle_beta                  89.97353607216883 
_cell_angle_gamma                 89.96105166318205 
loop_ 
_atom_site_label 
_atom_site_type_symbol 
_atom_site_fract_x 
_atom_site_fract_y 
_atom_site_fract_z 
_atom_site_charge 
O1          O  0.70100089  0.71204396  0.20765372    -0.88070
C2          C  0.72807097  0.70507950  0.32346142     0.87960
Mg3        Mg  0.74458489  0.70706920  0.16310453     1.58150
O4          O  0.70621245  0.79860809  0.28983886    -0.87800
O5          O  0.65574907  0.75026181  0.22916970    -0.75130
C6          C  0.88173902  0.83029630  0.21301078     0.93010
O7          O  0.76938621  0.66094734  0.24594082    -0.74940
O8          O  0.87680960  0.79923498  0.19425667    -0.82450
Mg9        Mg  0.70345318  0.66707304  0.25110681     1.57960
C10         C  0.78404901  0.88720975  0.32739640     0.92930
O11         O  0.63864385  0.66174892  0.26121898    -0.80710
H12         H  0.67025769  0.83737361  0.26712657    -0.06060
C13         C  0.82163749  0.77206110  0.29614820     0.87870
O14         O  0.74896107  0.77322750  0.15700048    -0.75220
O15         O  0.70876968  0.71165846  0.29444981    -0.87990
O16         O  0.75932826  0.86321633  0.33997227    -0.80800
C17         C  0.66957749  0.78677854  0.38395089     0.93050
C18         C  0.61454141  0.67352222  0.28614416     0.92900
Mg19       Mg  0.79242271  0.83767108  0.24742869     1.57950
O20         O  0.85789671  0.84153528  0.23850491    -0.80720
O21         O  0.72633310  0.84432557  0.25184092    -0.74960
O22         O  0.65979695  0.76057523  0.36035950    -0.80800
O23         O  0.69564236  0.62101804  0.20471391    -0.82510
O24         O  0.83634113  0.74078893  0.13715792    -0.80830
C25         C  0.69952816  0.82712060  0.26981026     0.87340
O26         O  0.78670867  0.79376436  0.20283444    -0.87970
O27         O  0.79316483  0.79266191  0.29054174    -0.88080
O28         O  0.83852967  0.75488090  0.26861529    -0.75130
Mg29       Mg  0.66286768  0.75365685  0.29505571     1.57970
O30         O  0.70019237  0.80649885  0.37936703    -0.82510
H31         H  0.66191006  0.73608413  0.17286540    -0.06230
O32         O  0.78806963  0.70686118  0.20770213    -0.87780
H33         H  0.82495390  0.66848670  0.22901112    -0.06060
H34         H  0.76326591  0.82945206  0.16430567    -0.06230
C35         C  0.79551303  0.67833401  0.22727911     0.87310
C36         C  0.67247178  0.73256171  0.20187865     0.87900
C37         C  0.76646306  0.80022058  0.17439082     0.87950
H38         H  0.83219695  0.76825358  0.32511895    -0.06210
O39         O  0.74495708  0.73203142  0.34143352    -0.75240
Mg40       Mg  0.83203244  0.75099438  0.20250713     1.58000
H41         H  0.73080739  0.67584675  0.33362830    -0.06230
C42         C  0.71154632  0.61687508  0.17203184     0.92930
O43         O  0.79225988  0.69811019  0.11837423    -0.82470
C44         C  0.82429821  0.71527648  0.11368674     0.92990
O45         O  0.61863276  0.70540512  0.30355116    -0.82450
Mg46       Mg  0.74903882  0.79807704  0.33497467     1.58180
O47         O  0.73420089  0.64203859  0.15806020    -0.80790
O48         O  0.80092092  0.88265169  0.29521643    -0.82480
O49         O  0.78593389  0.31506198  0.76983415    -0.88070
C50         C  0.77625094  0.26193292  0.66395224     0.87960
Mg51       Mg  0.81012668  0.28607116  0.81956354     1.58150
O52         O  0.68825100  0.26915060  0.71491418    -0.87800
O53         O  0.73186036  0.34221472  0.75267948    -0.75130
C54         C  0.72029561  0.11845710  0.83149325     0.93010
O55         O  0.84361258  0.25204610  0.73256547    -0.74940
O56         O  0.75404489  0.13277904  0.83441965    -0.82450
Mg57       Mg  0.81966862  0.31155302  0.71678329     1.57960
C58         C  0.61790935  0.16882019  0.71803280     0.92930
O59         O  0.80698750  0.37143602  0.69056921    -0.80710
H60         H  0.64419381  0.29939834  0.73568691    -0.06060
C61         C  0.74154183  0.16429987  0.72565770     0.87870
O62         O  0.75033454  0.26891966  0.84250918    -0.75220
O63         O  0.76978117  0.28722539  0.68797170    -0.87990
O64         O  0.63312537  0.18987145  0.69216604    -0.80800
C65         C  0.66914546  0.28321516  0.61675651     0.93050
C66         C  0.78076011  0.38652084  0.66980121     0.92900
Mg67       Mg  0.68238937  0.19311492  0.78360408     1.57950
O68         O  0.69442403  0.13365045  0.81043322    -0.80720
O69         O  0.65787324  0.25200799  0.76681795    -0.74960
O70         O  0.68991091  0.30885803  0.63275269    -0.80800
O71         O  0.87037353  0.33839388  0.74830240    -0.82510
O72         O  0.81213132  0.19495667  0.86798592    -0.80830
C73         C  0.66253363  0.27455017  0.73864837     0.87340
O74         O  0.73281353  0.21711640  0.81196589    -0.87970
O75         O  0.71643471  0.18873704  0.73120909    -0.88080
O76         O  0.76956016  0.16007405  0.74865362    -0.75130
Mg77       Mg  0.71626573  0.32008882  0.69254448     1.57970
O78         O  0.66652627  0.24911624  0.63008141    -0.82510
H79         H  0.75946569  0.35421698  0.80263595    -0.06230
O80         O  0.81457169  0.23380003  0.78501037    -0.87780
H81         H  0.85618724  0.20249000  0.76060614    -0.06060
H82         H  0.70073625  0.23983696  0.85370459    -0.06230
C83         C  0.83901373  0.22839355  0.75986500     0.87310
C84         C  0.75957000  0.33808039  0.77606542     0.87900
C85         C  0.72689172  0.24150218  0.83691308     0.87950
H86         H  0.73999563  0.14675402  0.70021385    -0.06210
O87         O  0.75308044  0.23420409  0.65881888    -0.75240
Mg88       Mg  0.78581462  0.18341783  0.80812462     1.58000
H89         H  0.80284932  0.26280508  0.64772504    -0.06230
C90         C  0.88490666  0.33496591  0.78178098     0.92930
O91         O  0.83701638  0.25405991  0.87038156    -0.82470
C92         C  0.83330787  0.22019613  0.88406806     0.92990
O93         O  0.74716248  0.37181600  0.66701158    -0.82450
Mg94       Mg  0.69306112  0.21709625  0.68079363     1.58180
O95         O  0.86986970  0.31335360  0.80732412    -0.80790
O96         O  0.63211273  0.16621427  0.75175032    -0.82480
O97         O  0.73019076  0.78501476  0.68919894    -0.88070
C98         C  0.83672994  0.77517808  0.74192566     0.87960
Mg99       Mg  0.67920184  0.80727860  0.71724337     1.58150
O100        O  0.78607390  0.68742558  0.73402901    -0.87800
O101        O  0.74793941  0.73171026  0.66128416    -0.75130
C102        C  0.66732435  0.71675265  0.88554683     0.93010
O103        O  0.76522743  0.84101215  0.75404763    -0.74940
O104        O  0.66283299  0.75016533  0.87110056    -0.82450
Mg105      Mg  0.78272258  0.81906568  0.69439493     1.57960
C106        C  0.78426009  0.61561599  0.83341388     0.92930
O107        O  0.80984751  0.80794994  0.63486437    -0.80710
H108        H  0.76528308  0.64376763  0.70332710    -0.06060
C109        C  0.77399161  0.74059098  0.83879095     0.87870
O110        O  0.65846581  0.74644173  0.73309381    -0.75220
O111        O  0.81181855  0.76896790  0.71746799    -0.87990
O112        O  0.80961857  0.63182713  0.81239863    -0.80800
C113        C  0.88527333  0.67065005  0.71948787     0.93050
C114        C  0.83045544  0.78237806  0.61851367     0.92900
Mg115      Mg  0.71711478  0.67967534  0.81067195     1.57950
O116        O  0.68944037  0.69168378  0.87025410    -0.80720
O117        O  0.73469071  0.65601048  0.75155102    -0.74960
O118        O  0.86832273  0.69137053  0.69453722    -0.80800
O119        O  0.75084898  0.86993688  0.66841003    -0.82510
O120        O  0.62780830  0.80748242  0.80757342    -0.80830
C121        C  0.76250292  0.66154674  0.72857161     0.87340
O122        O  0.68704641  0.72913111  0.78628763    -0.87970
O123        O  0.76933590  0.71470016  0.81501350    -0.88080
O124        O  0.74932932  0.76726063  0.84308240    -0.75130
Mg125      Mg  0.80816903  0.71645289  0.68341140     1.57970
O126        O  0.87226938  0.66664469  0.75360253    -0.82510
H127        H  0.69794385  0.75959544  0.64918224    -0.06230
O128        O  0.71218522  0.81150243  0.77022925    -0.87780
H129        H  0.73542739  0.85230560  0.80302394    -0.06060
H130        H  0.64895729  0.69540216  0.75973338    -0.06230
C131        C  0.73709709  0.83586115  0.77675077     0.87310
C132        C  0.72441856  0.75928837  0.66556684     0.87900
C133        C  0.66398052  0.72259415  0.76012944     0.87950
H134        H  0.80004706  0.74096984  0.85579435    -0.06210
O135        O  0.84238429  0.75210148  0.76952859    -0.75240
Mg136      Mg  0.68882316  0.78216360  0.82001582     1.58000
H137        H  0.85337835  0.80135158  0.74027238    -0.06230
C138        C  0.71683674  0.88381188  0.67072129     0.92930
O139        O  0.62690631  0.83214775  0.74840214    -0.82470
C140        C  0.61220044  0.82849008  0.78182057     0.92990
O141        O  0.83356503  0.74836986  0.63193357    -0.82450
Mg142      Mg  0.82052544  0.69206993  0.78613041     1.58180
O143        O  0.69058563  0.86791586  0.69100100    -0.80790
O144        O  0.75025698  0.62933013  0.83730100    -0.82480
C145        C  0.54495433  0.39804604  0.17078076     0.03410
C146        C  0.51751474  0.40098557  0.19986650    -0.12740
C147        C  0.52055112  0.37857292  0.23313114     0.00910
C148        C  0.55156688  0.35310514  0.23754650    -0.11270
C149        C  0.57981941  0.35005256  0.20918592     0.03400
C150        C  0.57643266  0.37246794  0.17537144    -0.10690
H151        H  0.49335643  0.42052769  0.19637248     0.08990
H152        H  0.55365541  0.33539301  0.26308616     0.06520
H153        H  0.59817732  0.37030298  0.15310365     0.06370
C154        C  0.34925790  0.20551398  0.57926795     0.03410
C155        C  0.34666032  0.23153083  0.54896465    -0.12740
C156        C  0.37051850  0.22779528  0.51663836     0.00910
C157        C  0.39740914  0.19775981  0.51476259    -0.11270
C158        C  0.39953353  0.17042963  0.54393464     0.03400
C159        C  0.37555252  0.17441721  0.57665025    -0.10690
H160        H  0.32610110  0.25499657  0.55073897     0.08990
H161        H  0.41642380  0.19517699  0.49016109     0.06520
H162        H  0.37707474  0.15342455  0.59959027     0.06370
C163        C  0.39821707  0.37281293  0.34354133     0.03410
C164        C  0.39797123  0.34394899  0.37140377    -0.12740
C165        C  0.36808404  0.34245498  0.39832563     0.00910
C166        C  0.33800151  0.36922577  0.39676246    -0.11270
C167        C  0.33909963  0.39878792  0.36971187     0.03400
C168        C  0.36923361  0.40062364  0.34321326    -0.10690
H169        H  0.42107056  0.32291163  0.37229166     0.08990
H170        H  0.31470738  0.36798376  0.41753063     0.06520
H171        H  0.36994144  0.42349278  0.32204436     0.06370
C172        C  0.16850242  0.54363986  0.39992264     0.03410
C173        C  0.17302307  0.57763402  0.37795812    -0.12740
C174        C  0.20289547  0.58019103  0.35025884     0.00910
C175        C  0.22772459  0.54912442  0.34505218    -0.11270
C176        C  0.22353367  0.51581853  0.36716827     0.03400
C177        C  0.19410437  0.51324806  0.39445398    -0.10690
H178        H  0.15311033  0.60137828  0.38173804     0.08990
H179        H  0.25092433  0.55113030  0.32421983     0.06520
H180        H  0.19117293  0.48744308  0.41170799     0.06370
O181        O  0.95770090  0.45639991  0.54289405    -0.88070
C182        C  0.95234780  0.48282725  0.42658418     0.87960
Mg183      Mg  0.95268536  0.50070648  0.58697781     1.58150
O184        O  0.04537840  0.46059403  0.46228875    -0.87800
O185        O  0.99578856  0.41081240  0.52220042    -0.75130
C186        C  0.07680962  0.63650549  0.53731394     0.93010
O187        O  0.90723972  0.52379392  0.50322222    -0.74940
O188        O  0.04526669  0.63154854  0.55522953    -0.82450
Mg189      Mg  0.91314717  0.45788865  0.49890056     1.57960
C190        C  0.13475276  0.53674967  0.42481315     0.92930
O191        O  0.90734244  0.39275627  0.48916594    -0.80710
H192        H  0.08407937  0.42477620  0.48552779    -0.06060
C193        C  0.01961239  0.57553343  0.45416290     0.87870
O194        O  0.01908405  0.50452217  0.59315226    -0.75220
O195        O  0.95817238  0.46292099  0.45537402    -0.87990
O196        O  0.11176724  0.50990500  0.41512320    -0.80800
C197        C  0.03665694  0.42385990  0.36745002     0.93050
C198        C  0.91995076  0.36885947  0.46446066     0.92900
Mg199      Mg  0.08514465  0.54724727  0.50335452     1.57950
O200        O  0.08894024  0.61260343  0.51234828    -0.80720
O201        O  0.09179416  0.48107055  0.49940398    -0.74960
O202        O  0.01077974  0.41267769  0.39096448    -0.80800
O203        O  0.86745550  0.45013454  0.54571536    -0.82510
O204        O  0.99081059  0.58970106  0.61206302    -0.80830
C205        C  0.07404277  0.45405150  0.48229448     0.87340
O206        O  0.04070569  0.54144377  0.54719994    -0.87970
O207        O  0.04021477  0.54730517  0.46052306    -0.88080
O208        O  0.00185354  0.59259271  0.48117748    -0.75130
Mg209      Mg  0.00068344  0.41728046  0.45631712     1.57970
O210        O  0.05516754  0.45501346  0.37247082    -0.82510
H211        H  0.98091958  0.41745830  0.57828628    -0.06230
O212        O  0.95296044  0.54316710  0.54165589    -0.87780
H213        H  0.91487499  0.57966581  0.51851903    -0.06060
H214        H  0.07570686  0.51783498  0.58626437    -0.06230
C215        C  0.92463944  0.55025904  0.52139104     0.87310
C216        C  0.97791756  0.42784761  0.54916792     0.87900
C217        C  0.04659314  0.52134958  0.57582375     0.87950
H218        H  0.01623132  0.58563880  0.42499088    -0.06210
O219        O  0.97988857  0.49973937  0.40937782    -0.75240
Mg220      Mg  0.99783545  0.58649611  0.54696536     1.58000
H221        H  0.92320345  0.48624560  0.41603230    -0.06230
C222        C  0.86282106  0.46627241  0.57820145     0.92930
O223        O  0.94451067  0.54978956  0.63129209    -0.82470
C224        C  0.96456734  0.58017494  0.63576600     0.92990
O225        O  0.95223532  0.37341278  0.44764567    -0.82450
Mg226      Mg  0.04615167  0.50292133  0.41703766     1.58180
O227        O  0.88716630  0.49018552  0.59174017    -0.80790
O228        O  0.12971972  0.55633639  0.45526479    -0.82480
O229        O  0.53868557  0.95919242  0.45647496    -0.88070
C230        C  0.42344601  0.95212210  0.48412912     0.87960
Mg231      Mg  0.58386878  0.95363439  0.49939913     1.58150
O232        O  0.45811491  0.04445512  0.46118856    -0.87800
O233        O  0.51761929  0.99556948  0.40990828    -0.75130
C234        C  0.53823651  0.07708256  0.63573610     0.93010
O235        O  0.50067687  0.90752050  0.52268938    -0.74940
O236        O  0.55332844  0.04399372  0.63156602    -0.82450
Mg237      Mg  0.49604542  0.91411490  0.45706198     1.57960
C238        C  0.42314663  0.13572047  0.53706192     0.92930
O239        O  0.48811813  0.91066285  0.39171420    -0.80710
H240        H  0.48011417  0.08305789  0.42492984    -0.06060
C241        C  0.45168033  0.02087766  0.57683034     0.87870
O242        O  0.59093777  0.01940215  0.50342222    -0.75220
O243        O  0.45166260  0.95780517  0.46318170    -0.87990
O244        O  0.41087053  0.11156817  0.51236573    -0.80800
C245        C  0.36310885  0.03489952  0.42545686     0.93050
C246        C  0.46195737  0.92076102  0.36813278     0.92900
Mg247      Mg  0.50215325  0.08521331  0.54655279     1.57950
O248        O  0.51482082  0.09116667  0.61126320    -0.80720
O249        O  0.49618059  0.09047026  0.48058339    -0.74960
O250        O  0.38579531  0.00772116  0.41581345    -0.80800
O251        O  0.54368935  0.86966758  0.44818246    -0.82510
O252        O  0.60942796  0.98576002  0.59169511    -0.80830
C253        C  0.47802436  0.07295303  0.45414598     0.87340
O254        O  0.54551393  0.04021213  0.54148165    -0.87970
O255        O  0.45808989  0.04089294  0.54830638    -0.88080
O256        O  0.47849071  0.00236387  0.59342764    -0.75130
Mg257      Mg  0.45141804  0.99974955  0.41768349     1.57970
O258        O  0.36861577  0.05466113  0.45577387    -0.82510
H259        H  0.57394929  0.98070954  0.41673936    -0.06230
O260        O  0.53893836  0.95303420  0.54280438    -0.87780
H261        H  0.51592981  0.91438737  0.57862437    -0.06060
H262        H  0.58452301  0.07556895  0.51819782    -0.06230
C263        C  0.51874626  0.92459876  0.54942676     0.87310
C264        C  0.54483502  0.97839842  0.42736602     0.87900
C265        C  0.57407070  0.04643466  0.52127778     0.87950
H266        H  0.42257420  0.01864533  0.58752893    -0.06210
O267        O  0.40652825  0.97970782  0.50128956    -0.75240
Mg268      Mg  0.54445973  0.99691943  0.58668664     1.58000
H269        H  0.41311854  0.92306473  0.48822786    -0.06230
C270        C  0.57599364  0.86492015  0.46477290     0.92930
O271        O  0.62955713  0.94535353  0.54621601    -0.82470
C272        C  0.63393593  0.96186497  0.57854424     0.92990
O273        O  0.44214254  0.95119590  0.37317545    -0.82450
Mg274      Mg  0.41355547  0.04596815  0.50419681     1.58180
O275        O  0.58874633  0.88856868  0.48960245    -0.80790
O276        O  0.45482708  0.13092680  0.55495216    -0.82480
C277        C  0.59553730  0.62893596  0.65451351     0.03410
C278        C  0.59509409  0.65684566  0.62574072    -0.12740
C279        C  0.62098247  0.65409908  0.59505205     0.00910
C280        C  0.64729883  0.62374823  0.59354197    -0.11270
C281        C  0.64835514  0.59680529  0.62313628     0.03400
C282        C  0.62226226  0.59901046  0.65346728    -0.10690
H283        H  0.57414007  0.68000089  0.62679738     0.08990
H284        H  0.66719737  0.62125484  0.56961494     0.06520
H285        H  0.62270785  0.57757774  0.67608866     0.06370
C286        C  0.42159378  0.65075768  0.79502073     0.03410
C287        C  0.45207847  0.65197179  0.76903148    -0.12740
C288        C  0.48446865  0.62878920  0.77453118     0.00910
C289        C  0.48674870  0.60373175  0.80568642    -0.11270
C290        C  0.45679274  0.60197252  0.83230737     0.03400
C291        C  0.42383682  0.62561519  0.82704794    -0.10690
H292        H  0.45034223  0.67044204  0.74398035     0.08990
H293        H  0.51206469  0.58570712  0.80926433     0.06520
H294        H  0.40040810  0.62460741  0.84763030     0.06370
C295        C  0.59870297  0.83009773  0.45650048     0.03410
C296        C  0.62384866  0.82713625  0.42449790    -0.12740
C297        C  0.64474658  0.79270064  0.41797665     0.00910
C298        C  0.63911397  0.76159541  0.44261010    -0.11270
C299        C  0.61491690  0.76502058  0.47454645     0.03400
C300        C  0.59581189  0.79952367  0.48202965    -0.10690
H301        H  0.62672253  0.85103978  0.40475644     0.08990
H302        H  0.65461089  0.73491374  0.43768337     0.06520
H303        H  0.57868575  0.80260668  0.50795142     0.06370
C304        C  0.82738212  0.45857862  0.60040336     0.03410
C305        C  0.82353065  0.42672677  0.62560415    -0.12740
C306        C  0.78908541  0.42166112  0.64710860     0.00910
C307        C  0.75979908  0.44896326  0.64376133    -0.11270
C308        C  0.76355068  0.48003734  0.61866437     0.03400
C309        C  0.79718471  0.48469889  0.59705835    -0.10690
H310        H  0.84659160  0.40578941  0.62773195     0.08990
H311        H  0.73378299  0.44599437  0.66082928     0.06520
H312        H  0.80002565  0.50907874  0.57782623     0.06370
O313        O  0.45282070  0.54095976  0.96103846    -0.88070
C314        C  0.48214915  0.42506588  0.95212930     0.87960
Mg315      Mg  0.49675343  0.58555967  0.95685932     1.58150
O316        O  0.46168775  0.45721402  0.04587513    -0.87800
O317        O  0.40902885  0.51829155  0.99998092    -0.75130
C318        C  0.63542317  0.53579260  0.07773941     0.93010
O319        O  0.52081431  0.50581587  0.90791634    -0.74940
O320        O  0.63014408  0.55388707  0.04643817    -0.82450
Mg321      Mg  0.45491064  0.49811971  0.91524880     1.57960
C322        C  0.53864856  0.42038132  0.13525737     0.92930
O323        O  0.39000700  0.48514396  0.91009568    -0.80710
H324        H  0.42532424  0.47582045  0.08586497    -0.06060
C325        C  0.57628245  0.45197300  0.01890490     0.87870
O326        O  0.50182532  0.59008489  0.02288976    -0.75220
O327        O  0.46162508  0.45332772  0.95894611    -0.87990
O328        O  0.51513485  0.40718356  0.11037152    -0.80800
C329        C  0.42452686  0.36309184  0.03635638     0.93050
C330        C  0.36566489  0.46119693  0.92346286     0.92900
Mg331      Mg  0.54664986  0.49980270  0.08594579     1.57950
O332        O  0.61188999  0.51031468  0.08962036    -0.80720
O333        O  0.48070613  0.49367839  0.09311845    -0.74960
O334        O  0.41234490  0.38695740  0.01137836    -0.80800
O335        O  0.44533959  0.54632669  0.87083647    -0.82510
O336        O  0.58702620  0.61138627  0.99304547    -0.80830
C337        C  0.45451154  0.47539735  0.07534323     0.87340
O338        O  0.53988821  0.54415828  0.04262250    -0.87970
O339        O  0.54835087  0.45700510  0.04037515    -0.88080
O340        O  0.59212986  0.47986061  0.00137387    -0.75130
Mg341      Mg  0.41663116  0.45240513  0.00261102     1.57970
O342        O  0.45671513  0.36754937  0.05337330    -0.82510
H343        H  0.41382489  0.57490582  0.98646432    -0.06230
O344        O  0.53923473  0.54098625  0.95620884    -0.87780
H345        H  0.57544197  0.52612584  0.91480738    -0.06060
H346        H  0.51610914  0.58197968  0.07891504    -0.06230
C347        C  0.54661283  0.52437581  0.92597135     0.87310
C348        C  0.42477696  0.54607725  0.98228331     0.87900
C349        C  0.51940659  0.57235368  0.04956075     0.87950
H350        H  0.58707835  0.42312334  0.01441877    -0.06210
O351        O  0.49986846  0.40741731  0.97882947    -0.75240
Mg352      Mg  0.58436242  0.54585209  0.99939830     1.58000
H353        H  0.48540954  0.41534241  0.92279538    -0.06230
C354        C  0.46281285  0.57833014  0.86700057     0.92930
O355        O  0.54529699  0.63012911  0.94831148    -0.82470
C356        C  0.57655416  0.63476266  0.96691434     0.92990
O357        O  0.37044099  0.44477492  0.95579125    -0.82450
Mg358      Mg  0.50469615  0.41242831  0.04503514     1.58180
O359        O  0.48683299  0.59060442  0.89183592    -0.80790
O360        O  0.55558337  0.45254743  0.13092549    -0.82480
O361        O  0.54185062  0.45556455  0.45942327    -0.88070
C362        C  0.54809293  0.48320834  0.57507871     0.87960
Mg363      Mg  0.54703723  0.49879350  0.41445058     1.58150
O364        O  0.45442977  0.46106266  0.54153919    -0.87800
O365        O  0.50344752  0.41067317  0.48102293    -0.75130
C366        C  0.42070545  0.63394839  0.46201116     0.93010
O367        O  0.59259434  0.52337795  0.49784131    -0.74940
O368        O  0.45277812  0.63007122  0.44454002    -0.82450
Mg369      Mg  0.58672341  0.45744235  0.50298869     1.57960
C370        C  0.36398909  0.53807630  0.57639059     0.92930
O371        O  0.59168995  0.39250047  0.51368036    -0.80710
H372        H  0.41619777  0.42397756  0.52025057    -0.06060
C373        C  0.47838015  0.57709182  0.54623446     0.87870
O374        O  0.48095930  0.50311111  0.40763700    -0.75220
O375        O  0.54194153  0.46288688  0.54669359    -0.87990
O376        O  0.38934725  0.51619928  0.59134215    -0.80800
C377        C  0.46360375  0.42512121  0.63576708     0.93050
C378        C  0.57912935  0.36840277  0.53822547     0.92900
Mg379      Mg  0.41466727  0.54482690  0.49677207     1.57950
O380        O  0.40883375  0.60950257  0.48648090    -0.80720
O381        O  0.40897433  0.47909071  0.50224496    -0.74960
O382        O  0.48903180  0.41324362  0.61210072    -0.80800
O383        O  0.63276496  0.44907852  0.45591829    -0.82510
O384        O  0.51188541  0.58980479  0.38802666    -0.80830
C385        C  0.42607934  0.45336277  0.52166170     0.87340
O386        O  0.46015184  0.54006594  0.45380853    -0.87970
O387        O  0.45920105  0.54774516  0.54056974    -0.88080
O388        O  0.49652858  0.59361739  0.51914136    -0.75130
Mg389      Mg  0.49906153  0.41755153  0.54693315     1.57970
O390        O  0.44613338  0.45705464  0.63120895    -0.82510
H391        H  0.51789166  0.41641929  0.42474410    -0.06230
O392        O  0.54725420  0.54289603  0.45896050    -0.87780
H393        H  0.58540187  0.57922161  0.48220735    -0.06060
H394        H  0.42483540  0.51847526  0.41430016    -0.06230
C395        C  0.57546396  0.54987415  0.47941947     0.87310
C396        C  0.52128208  0.42714983  0.45370787     0.87900
C397        C  0.45390376  0.52066150  0.42489219     0.87950
H398        H  0.47988968  0.58885704  0.57486510    -0.06210
O399        O  0.52078902  0.50056935  0.59216065    -0.75240
Mg400      Mg  0.50189768  0.58615960  0.45335695     1.58000
H401        H  0.57731881  0.48662539  0.58534868    -0.06230
C402        C  0.63720792  0.46436189  0.42295847     0.92930
O403        O  0.55488433  0.54599484  0.36897888    -0.82470
C404        C  0.53685763  0.57754217  0.36406903     0.92990
O405        O  0.54710216  0.37301375  0.55548838    -0.82450
Mg406      Mg  0.45452855  0.50476746  0.58592053     1.58180
O407        O  0.61252331  0.48766570  0.40899218    -0.80790
O408        O  0.36800753  0.55233426  0.54294459    -0.82480
O409        O  0.06282932  0.96361925  0.01840352    -0.88070
C410        C  0.00976068  0.97426993  0.91288029     0.87960
Mg411      Mg  0.03343772  0.94064733  0.06847155     1.58150
O412        O  0.01920698  0.06214775  0.96415577    -0.87800
O413        O  0.09176357  0.01652028  0.00095559    -0.75130
C414        C  0.86415098  0.03125101  0.07923095     0.93010
O415        O  0.99863769  0.90709945  0.98181179    -0.74940
O416        O  0.87837579  0.99750984  0.08243946    -0.82450
Mg417      Mg  0.05884860  0.92950225  0.96584995     1.57960
C418        C  0.91948637  0.13472521  0.96739260     0.92930
O419        O  0.11919828  0.94108465  0.93952232    -0.80710
H420        H  0.05175116  0.10210497  0.98966457    -0.06060
C421        C  0.91335574  0.00955019  0.97359821     0.87870
O422        O  0.01706439  0.00072283  0.09052324    -0.75220
O423        O  0.03535654  0.97992296  0.93684166    -0.87990
O424        O  0.94055708  0.11902795  0.94172532    -0.80800
C425        C  0.03251782  0.08016464  0.86492360     0.93050
C426        C  0.13479402  0.96678537  0.91851434     0.92900
Mg427      Mg  0.94090448  0.06867863  0.03275193     1.57950
O428        O  0.88009773  0.05706953  0.05857939    -0.80720
O429        O  0.00138179  0.09072731  0.01711450    -0.74960
O430        O  0.05782894  0.05893312  0.88098204    -0.80800
O431        O  0.08485013  0.87809262  0.99803775    -0.82510
O432        O  0.94163975  0.93924244  0.11701314    -0.80830
C433        C  0.02514915  0.08587883  0.98982978     0.87340
O434        O  0.96400068  0.01835802  0.06171301    -0.87970
O435        O  0.93711669  0.03515794  0.97989896    -0.88080
O436        O  0.90837772  0.98197461  0.99689920    -0.75130
Mg437      Mg  0.06940307  0.03268345  0.94104001     1.57970
O438        O  0.99864282  0.08422232  0.87871177    -0.82510
H439        H  0.10337253  0.98845650  0.05068295    -0.06230
O440        O  0.98071762  0.93648734  0.03423993    -0.87780
H441        H  0.94839930  0.89582233  0.00953998    -0.06060
H442        H  0.98911849  0.05070910  0.10203149    -0.06230
C443        C  0.97488507  0.91224713  0.00903243     0.87310
C444        C  0.08689373  0.98903258  0.02436531     0.87900
C445        C  0.98954935  0.02426896  0.08565679     0.87950
H446        H  0.89732649  0.01003841  0.94699157    -0.06210
O447        O  0.98259840  0.99821761  0.90783189    -0.75240
Mg448      Mg  0.93015125  0.96560826  0.05701581     1.58000
H449        H  0.00993872  0.94783635  0.89651945    -0.06230
C450        C  0.08110501  0.86440252  0.03188008     0.92930
O451        O  0.00124900  0.91497598  0.11966018    -0.82470
C452        C  0.96722473  0.91847898  0.13326785     0.92990
O453        O  0.12057864  0.00050043  0.91527246    -0.82450
Mg454      Mg  0.96649599  0.05849893  0.92996297     1.58180
O455        O  0.05997214  0.88057732  0.05716550    -0.80790
O456        O  0.91563017  0.12016537  0.00084423    -0.82480
C457        C  0.82718513  0.95737104  0.40064492     0.03410
C458        C  0.80006847  0.98682594  0.39810436    -0.12740
C459        C  0.76983998  0.98472574  0.37157737     0.00910
C460        C  0.76575510  0.95230095  0.34812952    -0.11270
C461        C  0.79181400  0.92194659  0.35063284     0.03400
C462        C  0.82301906  0.92445960  0.37689341    -0.10690
H463        H  0.80291745  0.01187238  0.41646849     0.08990
H464        H  0.74200639  0.95058365  0.32791484     0.06520
H465        H  0.84395294  0.90136612  0.37851044     0.06370
C466        C  0.62724571  0.15907494  0.40143118     0.03410
C467        C  0.65511123  0.13008758  0.40125067    -0.12740
C468        C  0.65657480  0.10401772  0.37086152     0.00910
C469        C  0.63051479  0.10689442  0.34048532    -0.11270
C470        C  0.60245169  0.13564325  0.34088652     0.03400
C471        C  0.60129642  0.16223141  0.37094211    -0.10690
H472        H  0.67520949  0.12741063  0.42497294     0.08990
H473        H  0.63136655  0.08611397  0.31725396     0.06520
H474        H  0.57995266  0.18505531  0.37077668     0.06370
C475        C  0.46026426  0.10492200  0.16697417     0.03410
C476        C  0.49015445  0.10965203  0.19341832    -0.12740
C477        C  0.48654617  0.13532618  0.22405962     0.00910
C478        C  0.45201206  0.15536324  0.22948535    -0.11270
C479        C  0.42076618  0.14968418  0.20509716     0.03400
C480        C  0.42494981  0.12479152  0.17302685    -0.10690
H481        H  0.51647238  0.09312125  0.19005834     0.08990
H482        H  0.44913963  0.17516369  0.25341224     0.06520
H483        H  0.40124512  0.12109993  0.15309910     0.06370
C484        C  0.60179151  0.33313790  0.54477737     0.03410
C485        C  0.62467162  0.32706886  0.57805123    -0.12740
C486        C  0.64690286  0.29292337  0.58174545     0.00910
C487        C  0.64594718  0.26588541  0.55223055    -0.11270
C488        C  0.62432461  0.27270821  0.51917951     0.03400
C489        C  0.60220147  0.30590418  0.51551352    -0.10690
H490        H  0.62478401  0.34830868  0.60083035     0.08990
H491        H  0.66247692  0.23948391  0.55467507     0.06520
H492        H  0.58557131  0.31069819  0.48954837     0.06370
C493        C  0.20696980  0.08118032  0.64747265     0.03410
C494        C  0.23853431  0.05773337  0.63885372    -0.12740
C495        C  0.23637963  0.03032380  0.60943510     0.00910
C496        C  0.20215904  0.02622703  0.58846434    -0.11270
C497        C  0.16954079  0.04753805  0.59793395     0.03400
C498        C  0.17178675  0.07537727  0.62759439    -0.10690
H499        H  0.26488211  0.06091627  0.65531206     0.08990
H500        H  0.20042518  0.00521573  0.56548563     0.06520
H501        H  0.14700223  0.09327806  0.63400891     0.06370
C502        C  0.37882135  0.85313016  0.58813758     0.03410
C503        C  0.35555117  0.88529796  0.58155697    -0.12740
C504        C  0.35451356  0.91537047  0.60819580     0.00910
C505        C  0.37946617  0.91493837  0.63972682    -0.11270
C506        C  0.40318158  0.88303661  0.64590925     0.03400
C507        C  0.40175663  0.85165174  0.62101565    -0.10690
H508        H  0.33734750  0.88647786  0.55626988     0.08990
H509        H  0.37962124  0.93864095  0.65997547     0.06520
H510        H  0.41914736  0.82640490  0.62694912     0.06370
C511        C  0.57640037  0.85046890  0.79049811     0.03410
C512        C  0.54786405  0.85200383  0.76220147    -0.12740
C513        C  0.51666968  0.87743779  0.76542118     0.00910
C514        C  0.51259871  0.89993377  0.79846025    -0.11270
C515        C  0.53948417  0.89790930  0.82812506     0.03400
C516        C  0.57202731  0.87339735  0.82400781    -0.10690
H517        H  0.55049723  0.83383708  0.73702251     0.08990
H518        H  0.48840761  0.91956570  0.80107424     0.06520
H519        H  0.59367907  0.87235032  0.84641111     0.06370
C520        C  0.34886747  0.70583161  0.41931919     0.03410
C521        C  0.34924904  0.73353264  0.44820568    -0.12740
C522        C  0.37147097  0.72810172  0.48129085     0.00910
C523        C  0.39482118  0.69551169  0.48492210    -0.11270
C524        C  0.39668080  0.66839685  0.45555584     0.03400
C525        C  0.37312361  0.67315425  0.42264261    -0.10690
H526        H  0.33222056  0.75950242  0.44487408     0.08990
H527        H  0.41189057  0.69136447  0.51070738     0.06520
H528        H  0.37361078  0.65175615  0.40001379     0.06370
O529        O  0.53483925  0.02080698  0.93434400    -0.88070
C530        C  0.52598971  0.91484032  0.98737957     0.87960
Mg531      Mg  0.55798055  0.07121262  0.96342538     1.58150
O532        O  0.43721870  0.96486731  0.98072618    -0.87800
O533        O  0.48106552  0.00237027  0.90735153    -0.75130
C534        C  0.46869706  0.08222838  0.13185115     0.93010
O535        O  0.59238588  0.98459720  0.99787685    -0.74940
O536        O  0.50219316  0.08546502  0.11704111    -0.82450
Mg537      Mg  0.56918442  0.96815345  0.93835002     1.57960
C538        C  0.36722387  0.96696099  0.08149837     0.92930
O539        O  0.55680628  0.94110664  0.87871208    -0.80710
H540        H  0.39265375  0.98544830  0.95097865    -0.06060
C541        C  0.49106149  0.97652118  0.08505920     0.87870
O542        O  0.49746687  0.09286526  0.98010632    -0.75220
O543        O  0.51921810  0.93898622  0.96241785    -0.87990
O544        O  0.38344706  0.94171613  0.06042658    -0.80800
C545        C  0.41901115  0.86597483  0.96786570     0.93050
C546        C  0.53093928  0.91975281  0.86372061     0.92900
Mg547      Mg  0.43045251  0.03381632  0.05737333     1.57950
O548        O  0.44277788  0.06095693  0.11694099    -0.80720
O549        O  0.40609982  0.01631967  0.99856479    -0.74960
O550        O  0.43939811  0.88186870  0.94178656    -0.80800
O551        O  0.62051866  0.00026520  0.91211123    -0.82510
O552        O  0.55905153  0.11971045  0.05453596    -0.80830
C553        C  0.41115697  0.98840425  0.97568156     0.87340
O554        O  0.48010694  0.06334201  0.03268832    -0.87970
O555        O  0.46570538  0.98192047  0.06093384    -0.88080
O556        O  0.51866887  0.99997321  0.08929615    -0.75130
Mg557      Mg  0.46565022  0.94218531  0.92983197     1.57970
O558        O  0.41686962  0.87968258  0.00180095    -0.82510
H559        H  0.50795421  0.05261181  0.89480284    -0.06230
O560        O  0.56247965  0.03682323  0.01566039    -0.87780
H561        H  0.60414031  0.01305766  0.04739909    -0.06060
H562        H  0.44706131  0.10340734  0.00791364    -0.06230
C563        C  0.58722938  0.01200123  0.02134262     0.87310
C564        C  0.50840276  0.02628709  0.91126831     0.87900
C565        C  0.47380021  0.08736300  0.00737181     0.87950
H566        H  0.49017233  0.95076086  0.10218509    -0.06210
O567        O  0.50312162  0.90954651  0.01530317    -0.75240
Mg568      Mg  0.53361053  0.05969851  0.06597375     1.58000
H569        H  0.55258004  0.89865610  0.98593298    -0.06230
C570        C  0.63450391  0.03401593  0.91613952     0.92930
O571        O  0.58408567  0.12284310  0.99558447    -0.82470
C572        C  0.58022414  0.13615572  0.02958250     0.92990
O573        O  0.49730087  0.91642736  0.87831925    -0.82450
Mg574      Mg  0.44306944  0.93102766  0.03294292     1.58180
O575        O  0.61825495  0.05943928  0.93707685    -0.80790
O576        O  0.38041341  0.00108663  0.08471857    -0.82480
C577        C  0.64637309  0.20789648  0.08156161     0.03410
C578        C  0.62506999  0.17391105  0.07371218    -0.12740
C579        C  0.60134579  0.17162192  0.04044893     0.00910
C580        C  0.59918144  0.20329214  0.01599452    -0.11270
C581        C  0.61960197  0.23679378  0.02445115     0.03400
C582        C  0.64303433  0.23912410  0.05682015    -0.10690
H583        H  0.62711590  0.14957574  0.09302211     0.08990
H584        H  0.58180451  0.20187058  0.99012168     0.06520
H585        H  0.65900318  0.26535181  0.06253172     0.06370
C586        C  0.59320363  0.37524346  0.84882867     0.03410
C587        C  0.59110759  0.35003101  0.87994642    -0.12740
C588        C  0.61892789  0.35187281  0.90882386     0.00910
C589        C  0.64817587  0.37934575  0.90725432    -0.11270
C590        C  0.65011409  0.40436082  0.87613416     0.03400
C591        C  0.62253243  0.40262180  0.84710560    -0.10690
H592        H  0.56879690  0.32819461  0.88098467     0.08990
H593        H  0.66978117  0.38067410  0.92974859     0.06520
H594        H  0.62396640  0.42254272  0.82318162     0.06370
C595        C  0.45570095  0.40113918  0.66998254     0.03410
C596        C  0.48303930  0.40100664  0.69926473    -0.12740
C597        C  0.47893666  0.37643052  0.73077018     0.00910
C598        C  0.44781120  0.35101107  0.73285612    -0.11270
C599        C  0.41963954  0.35081076  0.70442536     0.03400
C600        C  0.42347917  0.37602628  0.67257124    -0.10690
H601        H  0.50766412  0.42017851  0.69754909     0.08990
H602        H  0.44507785  0.33178472  0.75723579     0.06520
H603        H  0.40176312  0.37612734  0.65020329     0.06370
C604        C  0.83027369  0.53927917  0.89897565     0.03410
C605        C  0.82573437  0.57409772  0.87801898    -0.12740
C606        C  0.79352522  0.57904875  0.85328233     0.00910
C607        C  0.76735096  0.54900899  0.84908662    -0.11270
C608        C  0.77133404  0.51509634  0.87020217     0.03400
C609        C  0.80229919  0.51070505  0.89544861    -0.10690
H610        H  0.84683709  0.59688249  0.88089810     0.08990
H611        H  0.74314377  0.55238856  0.82963264     0.06520
H612        H  0.80462605  0.48484194  0.91267915     0.06370
C613        C  0.35027018  0.79448533  0.91887067     0.03410
C614        C  0.37434748  0.82704768  0.92441147    -0.12740
C615        C  0.39601533  0.83106954  0.95881897     0.00910
C616        C  0.39300348  0.80254818  0.98689734    -0.11270
C617        C  0.36982709  0.77034835  0.98081625     0.03400
C618        C  0.34897919  0.76603862  0.94692472    -0.10690
H619        H  0.37571007  0.84916255  0.90255063     0.08990
H620        H  0.40913306  0.80505914  0.01347821     0.06520
H621        H  0.33160282  0.74046213  0.94251156     0.06370
C622        C  0.54407668  0.60073836  0.32929145     0.03410
C623        C  0.57618367  0.62581792  0.32600714    -0.12740
C624        C  0.58023271  0.64963215  0.29320475     0.00910
C625        C  0.55269487  0.64789901  0.26429157    -0.11270
C626        C  0.52137428  0.62310020  0.26760484     0.03400
C627        C  0.51667195  0.59996247  0.30001344    -0.10690
H628        H  0.59769714  0.62671750  0.34855429     0.08990
H629        H  0.55567347  0.66576752  0.23891008     0.06520
H630        H  0.49150950  0.58158650  0.30249274     0.06370
C631        C  0.37777922  0.65341943  0.09464548     0.03410
C632        C  0.40471145  0.65672980  0.12424714    -0.12740
C633        C  0.40397950  0.63047463  0.15443843     0.00910
C634        C  0.37583617  0.60199535  0.15604233    -0.11270
C635        C  0.34901543  0.59881646  0.12641834     0.03400
C636        C  0.34985612  0.62455994  0.09568757    -0.10690
H637        H  0.42630944  0.67927748  0.12355450     0.08990
H638        H  0.37527379  0.58193067  0.17988882     0.06520
H639        H  0.32865692  0.62239695  0.07287956     0.06370
C640        C  0.20832413  0.42166257  0.15156825     0.03410
C641        C  0.23460592  0.45177673  0.15444610    -0.12740
C642        C  0.23002117  0.48524520  0.13270078     0.00910
C643        C  0.19845329  0.48894028  0.10803291    -0.11270
C644        C  0.17046459  0.46022641  0.10580741     0.03400
C645        C  0.17554944  0.42599069  0.12747947    -0.10690
H646        H  0.25921636  0.44884802  0.17346017     0.08990
H647        H  0.19559544  0.51440181  0.09029962     0.06520
H648        H  0.15441751  0.40312314  0.12561698     0.06370
O649        O  0.03558763  0.48054637  0.06477359    -0.88070
C650        C  0.02404907  0.58617584  0.01188667     0.87960
Mg651      Mg  0.05983777  0.43026144  0.03612023     1.58150
O652        O  0.93616952  0.53434000  0.02203702    -0.87800
O653        O  0.98277835  0.49825090  0.09409421    -0.75130
C654        C  0.96837836  0.41817432  0.86927038     0.93010
O655        O  0.09156982  0.51763028  0.00037076    -0.74940
O656        O  0.00220905  0.41442634  0.88317269    -0.82450
Mg657      Mg  0.06897365  0.53359613  0.06024609     1.57960
C658        C  0.86506867  0.53014760  0.92207173     0.92930
O659        O  0.05720107  0.55979076  0.11998853    -0.80710
H660        H  0.89519600  0.51030278  0.05425306    -0.06060
C661        C  0.98776279  0.52237565  0.91647582     0.87870
O662        O  0.00008699  0.40638305  0.02048209    -0.75220
O663        O  0.01828269  0.56217691  0.03727334    -0.87990
O664        O  0.88036959  0.55599613  0.94304826    -0.80800
C665        C  0.91727467  0.63368946  0.03403746     0.93050
C666        C  0.03165922  0.58096337  0.13571933     0.92900
Mg667      Mg  0.93031818  0.46423498  0.94570924     1.57950
O668        O  0.94255416  0.43858022  0.88559580    -0.80720
O669        O  0.90770556  0.48082548  0.00549912    -0.74960
O670        O  0.93817260  0.61798388  0.05980978    -0.80800
O671        O  0.12046970  0.50227916  0.08623299    -0.82510
O672        O  0.06190438  0.38123089  0.94499458    -0.80830
C673        C  0.91211972  0.50898044  0.02826528     0.87340
O674        O  0.98132700  0.43560440  0.96839209    -0.87970
O675        O  0.96384110  0.51667606  0.94184819    -0.88080
O676        O  0.01591842  0.49977070  0.91110735    -0.75130
Mg677      Mg  0.96555240  0.55805426  0.07156532     1.57970
O678        O  0.91417021  0.61948566  0.00035224    -0.82510
H679        H  0.01149762  0.44879464  0.10602831    -0.06230
O680        O  0.06314141  0.46431997  0.98348928    -0.87780
H681        H  0.10326238  0.48935467  0.95071146    -0.06060
H682        H  0.95035370  0.39369455  0.99249057    -0.06230
C683        C  0.08691252  0.48992057  0.97717458     0.87310
C684        C  0.01040993  0.47480711  0.08913437     0.87900
C685        C  0.97619120  0.41101926  0.99333434     0.87950
H686        H  0.98485365  0.54780216  0.89889905    -0.06210
O687        O  0.00035018  0.59081284  0.98460315    -0.75240
Mg688      Mg  0.03392081  0.44059696  0.93387421     1.58000
H689        H  0.05042604  0.60277005  0.01227996    -0.06230
C690        C  0.13508645  0.46870363  0.08334775     0.92930
O691        O  0.08683681  0.37932315  0.00405457    -0.82470
C692        C  0.08344347  0.36555954  0.97019600     0.92990
O693        O  0.99773051  0.58448271  0.12198782    -0.82450
Mg694      Mg  0.94034756  0.56771255  0.96929897     1.58180
O695        O  0.11990545  0.44270463  0.06242490    -0.80790
O696        O  0.87918956  0.49629980  0.91952016    -0.82480
C697        C  0.91409675  0.11044785  0.64205898     0.03410
C698        C  0.91676217  0.13734793  0.61240594    -0.12740
C699        C  0.88480897  0.14450102  0.58858804     0.00910
C700        C  0.85217096  0.12073337  0.59243230    -0.11270
C701        C  0.85183228  0.09072679  0.61897817     0.03400
C702        C  0.88238917  0.08610167  0.64442495    -0.10690
H703        H  0.94309432  0.15375584  0.60950572     0.08990
H704        H  0.82660105  0.12512112  0.57521401     0.06520
H705        H  0.88108606  0.06423888  0.66660166     0.06370
C706        C  0.04230219  0.10086276  0.82904169     0.03410
C707        C  0.01830534  0.09578942  0.79729642    -0.12740
C708        C  0.02480202  0.11627623  0.76338548     0.00910
C709        C  0.05449687  0.14333791  0.76139098    -0.11270
C710        C  0.07947749  0.14863118  0.79235039     0.03400
C711        C  0.07352048  0.12714190  0.82647084    -0.10690
H712        H  0.99423246  0.07592585  0.79898354     0.08990
H713        H  0.05866969  0.15972591  0.73520458     0.06520
H714        H  0.09286940  0.13080838  0.85062988     0.06370
C715        C  0.66927853  0.95498211  0.60099957     0.03410
C716        C  0.69863867  0.98204793  0.59806938    -0.12740
C717        C  0.73242258  0.97784873  0.61934311     0.00910
C718        C  0.73704093  0.94661045  0.64418460    -0.11270
C719        C  0.70809750  0.91887364  0.64789612     0.03400
C720        C  0.67365866  0.92326862  0.62628113    -0.10690
H721        H  0.69529523  0.00646302  0.57895550     0.08990
H722        H  0.76354350  0.94380424  0.66051111     0.06520
H723        H  0.65101954  0.90189572  0.62834848     0.06370
C724        C  0.85885311  0.29304863  0.41423769     0.03410
C725        C  0.87528729  0.32918421  0.42274229    -0.12740
C726        C  0.89733645  0.33381600  0.45654829     0.00910
C727        C  0.89801881  0.30431964  0.48361985    -0.11270
C728        C  0.88320113  0.26759750  0.47481719     0.03400
C729        C  0.86778880  0.26185795  0.43783579    -0.10690
H730        H  0.87178260  0.35298917  0.40297596     0.08990
H731        H  0.91070028  0.31079836  0.51116039     0.06520
H732        H  0.86035916  0.23340448  0.42784146     0.06370
C733        C  0.95423367  0.09843099  0.32904291     0.03410
C734        C  0.98090982  0.09545789  0.29924139    -0.12740
C735        C  0.97743115  0.11860723  0.26651421     0.00910
C736        C  0.94742010  0.14533727  0.26379012    -0.11270
C737        C  0.91948291  0.14768727  0.29229587     0.03400
C738        C  0.92291358  0.12437577  0.32545563    -0.10690
H739        H  0.00456438  0.07516146  0.30164600     0.08990
H740        H  0.94525070  0.16394712  0.23889842     0.06520
H741        H  0.90144188  0.12623665  0.34801211     0.06370
C742        C  0.15101154  0.29266613  0.92125569     0.03410
C743        C  0.14901919  0.26302699  0.94807773    -0.12740
C744        C  0.12484977  0.26608693  0.98007945     0.00910
C745        C  0.10348991  0.29961066  0.98630855    -0.11270
C746        C  0.10515443  0.33007359  0.96041411     0.03400
C747        C  0.12879547  0.32650780  0.92723641    -0.10690
H748        H  0.16607736  0.23720992  0.94378208     0.08990
H749        H  0.08502346  0.30183590  0.01138192     0.06520
H750        H  0.13007785  0.34973953  0.90655578     0.06370
C751        C  0.09079268  0.11656566  0.14743789     0.03410
C752        C  0.09090795  0.14542627  0.11957605    -0.12740
C753        C  0.11907017  0.14522234  0.09092276     0.00910
C754        C  0.14634485  0.11582911  0.08948064    -0.11270
C755        C  0.14603630  0.08716293  0.11740753     0.03400
C756        C  0.11786954  0.08692666  0.14591504    -0.10690
H757        H  0.06989596  0.16852658  0.12080511     0.08990
H758        H  0.16867561  0.11607713  0.06763640     0.06520
H759        H  0.11790866  0.06458122  0.16764327     0.06370
C760        C  0.33147734  0.95706607  0.10250464     0.03410
C761        C  0.30047200  0.98227978  0.09921833    -0.12740
C762        C  0.26652613  0.97598029  0.11978797     0.00910
C763        C  0.26334578  0.94458370  0.14451654    -0.11270
C764        C  0.29372628  0.91867893  0.14840533     0.03400
C765        C  0.32811818  0.92463795  0.12705477    -0.10690
H766        H  0.30270094  0.00705256  0.08040373     0.08990
H767        H  0.23702256  0.94028185  0.16083147     0.06520
H768        H  0.35185799  0.90452327  0.12963346     0.06370
O769        O  0.20335594  0.20961505  0.70914897    -0.88070
C770        C  0.23054037  0.20155529  0.82412430     0.87960
Mg771      Mg  0.24723884  0.20393299  0.66494874     1.58150
O772        O  0.20911269  0.29525429  0.79082337    -0.87800
O773        O  0.15782176  0.24726743  0.73059752    -0.75130
C774        C  0.38478570  0.32733309  0.71147678     0.93010
O775        O  0.26970897  0.15757568  0.74644434    -0.74940
O776        O  0.38037598  0.29522653  0.69442177    -0.82450
Mg777      Mg  0.20343621  0.16438443  0.75144353     1.57960
C778        C  0.28715832  0.38409043  0.82719835     0.92930
O779        O  0.13788656  0.16155959  0.76038259    -0.80710
H780        H  0.17326934  0.33467500  0.76910732    -0.06060
C781        C  0.32543584  0.26943261  0.79640071     0.87870
O782        O  0.25119944  0.26975239  0.65837740    -0.75220
O783        O  0.20962653  0.20798114  0.79615224    -0.87990
O784        O  0.26249602  0.35982296  0.83936699    -0.80800
C785        C  0.17376981  0.28566663  0.88595443     0.93050
C786        C  0.11411489  0.17263308  0.78603419     0.92900
Mg787      Mg  0.29545254  0.33472872  0.74749749     1.57950
O788        O  0.36057349  0.33967314  0.73613001    -0.80720
O789        O  0.22928516  0.34117553  0.75312330    -0.74960
O790        O  0.16105780  0.26096260  0.86201458    -0.80800
O791        O  0.19405250  0.11985191  0.70309351    -0.82510
O792        O  0.33893413  0.23775828  0.63812379    -0.80830
C793        C  0.20248975  0.32403893  0.77119709     0.87340
O794        O  0.28967307  0.29038500  0.70362485    -0.87970
O795        O  0.29669613  0.28952140  0.79039601    -0.88080
O796        O  0.34238895  0.25182013  0.76922846    -0.75130
Mg797      Mg  0.16466330  0.25127728  0.79657905     1.57970
O798        O  0.20566674  0.30304956  0.88082746    -0.82510
H799        H  0.16436526  0.23358092  0.67420555    -0.06230
O800        O  0.29024622  0.20406108  0.70949811    -0.87780
H801        H  0.32573978  0.16458024  0.73082746    -0.06060
H802        H  0.26601058  0.32574298  0.66537710    -0.06230
C803        C  0.29664461  0.17508545  0.72885543     0.87310
C804        C  0.17483813  0.23001786  0.70324058     0.87900
C805        C  0.26912855  0.29667465  0.67541071     0.87950
H806        H  0.33607644  0.26635335  0.82542861    -0.06210
O807        O  0.24855116  0.22853243  0.84100561    -0.75240
Mg808      Mg  0.33503062  0.24756637  0.70341893     1.58000
H809        H  0.23398149  0.17232567  0.83417491    -0.06230
C810        C  0.21368540  0.11486863  0.67259451     0.92930
O811        O  0.29439723  0.19566022  0.61933232    -0.82470
C812        C  0.32625974  0.21306562  0.61422455     0.92990
O813        O  0.11926386  0.20344663  0.80514457    -0.82450
Mg814      Mg  0.25291721  0.29462940  0.83505067     1.58180
O815        O  0.23997859  0.13836016  0.66247183    -0.80790
O816        O  0.30456148  0.37977936  0.79526189    -0.82480
O817        O  0.70541261  0.28975466  0.29255420    -0.88070
C818        C  0.72875513  0.29651780  0.17633692     0.87960
Mg819      Mg  0.75188452  0.29644867  0.33439808     1.58150
O820        O  0.70846700  0.20268435  0.21033354    -0.87800
O821        O  0.65990125  0.25101058  0.27271140    -0.75130
C822        C  0.88518880  0.17144885  0.28446896     0.93010
O823        O  0.77013387  0.34181917  0.25131410    -0.74940
O824        O  0.88116629  0.20371768  0.30109420    -0.82450
Mg825      Mg  0.70365466  0.33443840  0.24952759     1.57960
C826        C  0.78551778  0.11345257  0.17185313     0.92930
O827        O  0.63761411  0.33721424  0.24277861    -0.80710
H828        H  0.67293309  0.16392981  0.23362982    -0.06060
C829        C  0.82421101  0.22843123  0.20035486     0.87870
O830        O  0.75595609  0.23033998  0.34203496    -0.75220
O831        O  0.70893607  0.29022820  0.20513430    -0.87990
O832        O  0.76128449  0.13794266  0.15915577    -0.80800
C833        C  0.67008088  0.21321332  0.11644219     0.93050
C834        C  0.61405676  0.32593781  0.21704808     0.92900
Mg835      Mg  0.79545189  0.16372104  0.25109613     1.57950
O836        O  0.86085730  0.15900562  0.26004610    -0.80720
O837        O  0.72932923  0.15705974  0.24792111    -0.74960
O838        O  0.65853140  0.23762852  0.14123283    -0.80800
O839        O  0.69549026  0.37918371  0.29793516    -0.82510
O840        O  0.84203736  0.25915263  0.35771608    -0.80830
C841        C  0.70218003  0.17416509  0.23041795     0.87340
O842        O  0.79090064  0.20866990  0.29450070    -0.87970
O843        O  0.79572436  0.20837240  0.20751162    -0.88080
O844        O  0.84187516  0.24655010  0.22670976    -0.75130
Mg845      Mg  0.66423339  0.24690153  0.20635115     1.57970
O846        O  0.70179579  0.19510565  0.12022795    -0.82510
H847        H  0.66823911  0.26490728  0.32884245    -0.06230
O848        O  0.79238350  0.29561196  0.28750953    -0.87780
H849        H  0.82712991  0.33455933  0.26320710    -0.06060
H850        H  0.76919445  0.17379977  0.33478017    -0.06230
C851        C  0.79799896  0.32428187  0.26737395     0.87310
C852        C  0.67757476  0.26867876  0.29944484     0.87900
C853        C  0.77211582  0.20284300  0.32407218     0.87950
H854        H  0.83393500  0.23111580  0.17097443    -0.06210
O855        O  0.74596254  0.26943319  0.15872607    -0.75240
Mg856      Mg  0.83646543  0.25121350  0.29264904     1.58000
H857        H  0.73186438  0.32571430  0.16612619    -0.06230
C858        C  0.71594024  0.38485386  0.32776106     0.92930
O859        O  0.80280591  0.30610365  0.37628909    -0.82470
C860        C  0.83345107  0.28633950  0.38062894     0.92990
O861        O  0.61909079  0.29469363  0.19870163    -0.82450
Mg862      Mg  0.75067425  0.20323044  0.16436221     1.58180
O863        O  0.74337457  0.36218315  0.33693629    -0.80790
O864        O  0.80276328  0.11796568  0.20384044    -0.82480
C865        C  0.14896918  0.79089288  0.07899925     0.03410
C866        C  0.14464380  0.76049593  0.05317507    -0.12740
C867        C  0.11904181  0.76342853  0.02227386     0.00910
C868        C  0.09784835  0.79724462  0.01672994    -0.11270
C869        C  0.10189544  0.82838311  0.04157352     0.03400
C870        C  0.12741197  0.82515225  0.07329026    -0.10690
H871        H  0.16158900  0.73454508  0.05699547     0.08990
H872        H  0.07832928  0.79952413  0.99248323     0.06520
H873        H  0.13054854  0.84894984  0.09314168     0.06370
C874        C  0.15165606  0.59268956  0.87571837     0.03410
C875        C  0.14793746  0.61809856  0.90660370    -0.12740
C876        C  0.12122774  0.64805549  0.90475467     0.00910
C877        C  0.09713641  0.65141508  0.87280095    -0.11270
C878        C  0.10121877  0.62620674  0.84189585     0.03400
C879        C  0.12849701  0.59678042  0.84317116    -0.10690
H880        H  0.16687866  0.61543981  0.93124737     0.08990
H881        H  0.07537414  0.67383356  0.87181146     0.06520
H882        H  0.13126617  0.57688062  0.81933043     0.06370
C883        C  0.92143607  0.65084514  0.70870724     0.03410
C884        C  0.92397657  0.62497503  0.67724009    -0.12740
C885        C  0.95902056  0.60529618  0.66961366     0.00910
C886        C  0.99100798  0.61232911  0.69292840    -0.11270
C887        C  0.98812010  0.63731468  0.72415399     0.03400
C888        C  0.95362183  0.65655062  0.73183901    -0.10690
H889        H  0.89909819  0.62022150  0.65902104     0.08990
H890        H  0.01781231  0.59702154  0.68778375     0.06520
H891        H  0.95158624  0.67518850  0.75677285     0.06370
C892        C  0.29428854  0.41847569  0.85113680     0.03410
C893        C  0.32764333  0.42261298  0.87435001    -0.12740
C894        C  0.33042668  0.45352395  0.90080673     0.00910
C895        C  0.29995236  0.47945260  0.90388977    -0.11270
C896        C  0.26720632  0.47563750  0.88066074     0.03400
C897        C  0.26473351  0.44546112  0.85418358    -0.10690
H898        H  0.35088048  0.40186323  0.87217894     0.08990
H899        H  0.30200979  0.50313088  0.92408464     0.06520
H900        H  0.23953703  0.44279657  0.83591472     0.06370
O901        O  0.20941650  0.70854761  0.20388739    -0.88070
C902        C  0.20174419  0.82434896  0.22795752     0.87960
Mg903      Mg  0.20271042  0.66488604  0.24819589     1.58150
O904        O  0.29588949  0.78994415  0.20846496    -0.87800
O905        O  0.24774838  0.72859024  0.15825935    -0.75130
C906        C  0.32521533  0.71335222  0.38489685     0.93010
O907        O  0.15718577  0.74854118  0.26872387    -0.74940
O908        O  0.29302972  0.69626559  0.38062729    -0.82450
Mg909      Mg  0.16441351  0.75148074  0.20279203     1.57960
C910        C  0.38339146  0.82644902  0.28854233     0.92930
O911        O  0.16175097  0.75879348  0.13725502    -0.80710
H912        H  0.33467645  0.76537281  0.17368926    -0.06060
C913        C  0.26841511  0.79748128  0.32411959     0.87870
O914        O  0.26848828  0.65700758  0.25323749    -0.75220
O915        O  0.20849518  0.79560254  0.20827866    -0.87990
O916        O  0.35944559  0.84040589  0.26454980    -0.80800
C917        C  0.28675889  0.88405426  0.17191801     0.93050
C918        C  0.17300372  0.78429711  0.11350720     0.92900
Mg919      Mg  0.33308638  0.74687648  0.29564469     1.57950
O920        O  0.33755078  0.73791073  0.36074606    -0.80720
O921        O  0.34010914  0.75082264  0.22991880    -0.74960
O922        O  0.26194654  0.85993669  0.15967905    -0.80800
O923        O  0.11908207  0.70394525  0.19462737    -0.82510
O924        O  0.23385464  0.63998959  0.34125864    -0.80830
C925        C  0.32400079  0.76895708  0.20266500     0.87340
O926        O  0.28849915  0.70313833  0.29072812    -0.87970
O927        O  0.28834026  0.79064110  0.29556222    -0.88080
O928        O  0.25052622  0.77085038  0.34158038    -0.75130
Mg929      Mg  0.25204180  0.79481171  0.16392529     1.57970
O930        O  0.30407970  0.87971459  0.20388504    -0.82510
H931        H  0.23335174  0.67244197  0.16595645    -0.06230
O932        O  0.20186700  0.71024903  0.29104587    -0.87780
H933        H  0.16291825  0.73532657  0.32530699    -0.06060
H934        H  0.32416136  0.66284928  0.27022144    -0.06230
C935        C  0.17361675  0.73123056  0.29640635     0.87310
C936        C  0.23001975  0.70179026  0.17572447     0.87900
C937        C  0.29511651  0.67396757  0.27163386     0.87950
H938        H  0.26582997  0.82674473  0.33420735    -0.06210
O939        O  0.22850300  0.84162663  0.24590889    -0.75240
Mg940      Mg  0.24529558  0.70487976  0.33569748     1.58000
H941        H  0.17242248  0.83473174  0.23036006    -0.06230
C942        C  0.11364811  0.67327617  0.21376712     0.92930
O943        O  0.19391582  0.61978999  0.29536631    -0.82470
C944        C  0.21020806  0.61541316  0.32782170     0.92990
O945        O  0.20416880  0.80303210  0.11849722    -0.82450
Mg946      Mg  0.29456258  0.83501924  0.25175781     1.58180
O947        O  0.13726321  0.66203507  0.23940103    -0.80790
O948        O  0.37859199  0.79362067  0.30388540    -0.82480
C949        C  0.82851749  0.04029244  0.10128513     0.03410
C950        C  0.82454533  0.07391737  0.12410102    -0.12740
C951        C  0.79235961  0.07825247  0.14896201     0.00910
C952        C  0.76489364  0.04908934  0.15091521    -0.11270
C953        C  0.76850936  0.01601546  0.12827711     0.03400
C954        C  0.79969875  0.01229524  0.10295258    -0.10690
H955        H  0.84655149  0.09601594  0.12316259     0.08990
H956        H  0.74064780  0.05210798  0.17039658     0.06520
H957        H  0.80202142  0.98697252  0.08490916     0.06370
C958        C  0.65342392  0.89774385  0.13223191     0.03410
C959        C  0.62631197  0.89565632  0.16186642    -0.12740
C960        C  0.59952193  0.86567250  0.16233653     0.00910
C961        C  0.60014065  0.83746399  0.13381578    -0.11270
C962        C  0.62770867  0.83938996  0.10469943     0.03400
C963        C  0.65440896  0.86930693  0.10392586    -0.10690
H964        H  0.62568646  0.91751145  0.18409128     0.08990
H965        H  0.57907003  0.81441467  0.13406199     0.06520
H966        H  0.67547855  0.87082249  0.08092619     0.06370
C967        C  0.64640158  0.70747420  0.92153095     0.03410
C968        C  0.62192059  0.67491622  0.92543246    -0.12740
C969        C  0.60099414  0.66892287  0.96002565     0.00910
C970        C  0.60574859  0.69462579  0.99034239    -0.11270
C971        C  0.62959061  0.72658023  0.98627131     0.03400
C972        C  0.64920388  0.73342987  0.95197906    -0.10690
H973        H  0.61902513  0.65473065  0.90189736     0.08990
H974        H  0.59027993  0.69018294  0.01707875     0.06520
H975        H  0.66685008  0.75903859  0.94915852     0.06370
C976        C  0.41870284  0.84838920  0.29722354     0.03410
C977        C  0.42113037  0.87542720  0.32766876    -0.12740
C978        C  0.45584072  0.89610673  0.33396780     0.00910
C979        C  0.48714629  0.88986341  0.30941887    -0.11270
C980        C  0.48419064  0.86372001  0.27904705     0.03400
C981        C  0.45032945  0.84282522  0.27337050    -0.10690
H982        H  0.39673584  0.87960400  0.34669168     0.08990
H983        H  0.51369148  0.90586006  0.31352398     0.06520
H984        H  0.44829612  0.82285328  0.24948771     0.06370
C985        C  0.90690629  0.62074357  0.35340909     0.03410
C986        C  0.88087764  0.59031628  0.35624645    -0.12740
C987        C  0.85435361  0.58968492  0.38631645     0.00910
C988        C  0.85485211  0.61825984  0.41441941    -0.11270
C989        C  0.88045755  0.64918493  0.41107921     0.03400
C990        C  0.90592728  0.65069133  0.37997838    -0.10690
H991        H  0.88075606  0.56769097  0.33478751     0.08990
H992        H  0.83433352  0.61713216  0.43791063     0.06520
H993        H  0.92507537  0.67507651  0.37637732     0.06370
C994        C  0.07872656  0.64988423  0.20743689     0.03410
C995        C  0.07337813  0.62725525  0.17400943    -0.12740
C996        C  0.04114130  0.60238323  0.17111832     0.00910
C997        C  0.01542522  0.59991583  0.20173228    -0.11270
C998        C  0.02080088  0.62202223  0.23480883     0.03400
C999        C  0.05211392  0.64724190  0.23736567    -0.10690
H1000       H  0.09385757  0.62913132  0.15056086     0.08990
H1001       H  0.99090980  0.58062864  0.19974843     0.06520
H1002       H  0.05590611  0.66481167  0.26283464     0.06370
C1003       C  0.85183991  0.79214588  0.58296259     0.03410
C1004       C  0.85159730  0.76553288  0.55298181    -0.12740
C1005       C  0.87227995  0.77259414  0.51930300     0.00910
C1006       C  0.89446219  0.80585369  0.51557214    -0.11270
C1007       C  0.89651128  0.83234474  0.54548598     0.03400
C1008       C  0.87455474  0.82593597  0.57928348    -0.10690
H1009       H  0.83538616  0.73900750  0.55587517     0.08990
H1010       H  0.91064459  0.81084551  0.48935794     0.06520
H1011       H  0.87549596  0.84667438  0.60249820     0.06370
C1012       C  0.67255824  0.45603495  0.40046406     0.03410
C1013       C  0.67508099  0.42507081  0.37385830    -0.12740
C1014       C  0.70940717  0.41913405  0.35228510     0.00910
C1015       C  0.74019401  0.44442709  0.35722309    -0.11270
C1016       C  0.73752348  0.47479743  0.38327308     0.03400
C1017       C  0.70396786  0.48067801  0.40469343    -0.10690
H1018       H  0.65102651  0.40545699  0.37060683     0.08990
H1019       H  0.76650017  0.44049407  0.34076398     0.06520
H1020       H  0.70211958  0.50496562  0.42418570     0.06370
C1021       C  0.91679878  0.85362870  0.20685387     0.03410
C1022       C  0.92360331  0.87482326  0.17274656    -0.12740
C1023       C  0.95746523  0.89744444  0.16900765     0.00910
C1024       C  0.98404848  0.89799978  0.19912489    -0.11270
C1025       C  0.97658217  0.87817870  0.23326155     0.03400
C1026       C  0.94294743  0.85640224  0.23708821    -0.10690
H1027       H  0.90305781  0.87341819  0.14934069     0.08990
H1028       H  0.01078796  0.91388575  0.19599784     0.06520
H1029       H  0.93747439  0.84090137  0.26357310     0.06370
C1030       C  0.12906586  0.84452307  0.40046380     0.03410
C1031       C  0.09798760  0.84635193  0.37503075    -0.12740
C1032       C  0.09965893  0.87037428  0.34289127     0.00910
C1033       C  0.13162583  0.89436935  0.33781382    -0.11270
C1034       C  0.16131413  0.89456051  0.36490238     0.03400
C1035       C  0.16093344  0.86849126  0.39531326    -0.10690
H1036       H  0.07274341  0.82868017  0.38013775     0.08990
H1037       H  0.13284751  0.91400959  0.31366599     0.06520
H1038       H  0.18451328  0.86798035  0.41577306     0.06370
C1039       C  0.29309615  0.07977180  0.35283296     0.03410
C1040       C  0.26890961  0.04834440  0.34696682    -0.12740
C1041       C  0.27427037  0.01417148  0.36740877     0.00910
C1042       C  0.30407848  0.01123519  0.39427555    -0.11270
C1043       C  0.32916054  0.04196022  0.40061153     0.03400
C1044       C  0.32375868  0.07660982  0.37970182    -0.10690
H1045       H  0.24542344  0.05060416  0.32649599     0.08990
H1046       H  0.30772339  0.98487440  0.41052309     0.06520
H1047       H  0.34313635  0.10063556  0.38417271     0.06370
C1048       C  0.10027159  0.67111813  0.54461246     0.03410
C1049       C  0.10104988  0.69963106  0.51655984    -0.12740
C1050       C  0.12778822  0.72978808  0.51862785     0.00910
C1051       C  0.15232824  0.73268725  0.55048028    -0.11270
C1052       C  0.15066072  0.70565459  0.57994672     0.03400
C1053       C  0.12490962  0.67425917  0.57684033    -0.10690
H1054       H  0.08124876  0.69773341  0.49254573     0.08990
H1055       H  0.17278380  0.75618485  0.55254648     0.06520
H1056       H  0.12411336  0.65254704  0.59914276     0.06370
C1057       C  0.17025614  0.95781283  0.89640402     0.03410
C1058       C  0.19968759  0.98511846  0.89639943    -0.12740
C1059       C  0.23107507  0.98181549  0.87134409     0.00910
C1060       C  0.23402168  0.94984666  0.84704510    -0.11270
C1061       C  0.20614503  0.92104775  0.84773620     0.03400
C1062       C  0.17379097  0.92500503  0.87240581    -0.10690
H1063       H  0.19786390  0.00937133  0.91589971     0.08990
H1064       H  0.25846284  0.94701316  0.82778356     0.06520
H1065       H  0.15147557  0.90319791  0.87247671     0.06370
C1066       C  0.41003679  0.12070068  0.85115533     0.03410
C1067       C  0.38084910  0.09320135  0.85043887    -0.12740
C1068       C  0.35326182  0.09238835  0.87955397     0.00910
C1069       C  0.35384242  0.12034124  0.90838289    -0.11270
C1070       C  0.38240414  0.14866050  0.90809444     0.03400
C1071       C  0.41108493  0.14833241  0.88005889    -0.10690
H1072       H  0.37991751  0.07213159  0.82746965     0.08990
H1073       H  0.33198625  0.12035115  0.93068364     0.06520
H1074       H  0.43336629  0.17023123  0.87999110     0.06370
C1075       C  0.40116105  0.32835143  0.04390754     0.03410
C1076       C  0.40267198  0.29887749  0.01688673    -0.12740
C1077       C  0.38014011  0.26608903  0.02164584     0.00910
C1078       C  0.35563159  0.26219036  0.05305099    -0.11270
C1079       C  0.35334524  0.29098218  0.08083034     0.03400
C1080       C  0.37616217  0.32467271  0.07615820    -0.10690
H1081       H  0.42129808  0.30144743  0.99196280     0.08990
H1082       H  0.33869578  0.23612527  0.05609451     0.06520
H1083       H  0.37513098  0.34724271  0.09759375     0.06370
C1084       C  0.54619430  0.09909705  0.67103449     0.03410
C1085       C  0.57778597  0.12481916  0.67478450    -0.12740
C1086       C  0.58298786  0.14579751  0.70940391     0.00910
C1087       C  0.55602986  0.14155955  0.73878267    -0.11270
C1088       C  0.52541117  0.11585798  0.73513669     0.03400
C1089       C  0.52064267  0.09463083  0.70146731    -0.10690
H1090       H  0.59843948  0.12765052  0.65160086     0.08990
H1091       H  0.55894208  0.15838208  0.76487234     0.06520
H1092       H  0.49651874  0.07493846  0.69873713     0.06370
O1093       O  0.03822277  0.04829177  0.54109678    -0.88070
C1094       C  0.04466791  0.02019880  0.42578629     0.87960
Mg1095     Mg  0.04337084  0.00539806  0.58643354     1.58150
O1096       O  0.95110191  0.04226375  0.45992551    -0.87800
O1097       O  0.00019633  0.09356868  0.51965365    -0.75130
C1098       C  0.91967251  0.86739932  0.53906843     0.93010
O1099       O  0.08902978  0.98006299  0.50292930    -0.74940
O1100       O  0.95146999  0.87211470  0.55680565    -0.82450
Mg1101     Mg  0.08301706  0.04586365  0.49720245     1.57960
C1102       C  0.86191705  0.96442058  0.42428257     0.92930
O1103       O  0.08856289  0.11072874  0.48629094    -0.80710
H1104       H  0.91257004  0.07825899  0.48320440    -0.06060
C1105       C  0.97726479  0.92645134  0.45502774     0.87870
O1106       O  0.97720008  0.00062721  0.59294661    -0.75220
O1107       O  0.03815302  0.04058616  0.45404292    -0.87990
O1108       O  0.88637653  0.98867516  0.41172595    -0.80800
C1109       C  0.96127370  0.07618064  0.36443582     0.93050
C1110       C  0.07583294  0.13534626  0.46238172     0.92900
Mg1111     Mg  0.91186063  0.95636829  0.50395728     1.57950
O1112       O  0.90751099  0.89140341  0.51424547    -0.80720
O1113       O  0.90572699  0.02233646  0.49869328    -0.74960
O1114       O  0.98528496  0.08959823  0.38869230    -0.80800
O1115       O  0.12934568  0.05375747  0.54319263    -0.82510
O1116       O  0.01086166  0.91268678  0.61295811    -0.80830
C1117       C  0.92275765  0.04898564  0.48036929     0.87340
O1118       O  0.95634124  0.96209834  0.54801325    -0.87970
O1119       O  0.95699404  0.95504140  0.46093362    -0.88080
O1120       O  0.99506238  0.90979592  0.48222137    -0.75130
Mg1121     Mg  0.99547760  0.08613823  0.45393742     1.57970
O1122       O  0.94407274  0.04425957  0.36955850    -0.82510
H1123       H  0.01551250  0.08823884  0.57565601    -0.06230
O1124       O  0.04384402  0.96123646  0.54225797    -0.87780
H1125       H  0.08237443  0.92469713  0.52040592    -0.06060
H1126       H  0.92088494  0.98577177  0.58667416    -0.06230
C1127       C  0.07219925  0.95399044  0.52215394     0.87310
C1128       C  0.01818142  0.07708448  0.54683896     0.87900
C1129       C  0.95008050  0.98264932  0.57624151     0.87950
H1130       H  0.98038109  0.91570255  0.42604007    -0.06210
O1131       O  0.01780381  0.00193392  0.40903826    -0.75240
Mg1132     Mg  0.99964262  0.91703130  0.54800080     1.58000
H1133       H  0.07392373  0.01740181  0.41552433    -0.06230
C1134       C  0.13363985  0.03957320  0.57659967     0.92930
O1135       O  0.05217093  0.95808943  0.63183984    -0.82470
C1136       C  0.03582463  0.92561098  0.63653579     0.92990
O1137       O  0.04358747  0.13109009  0.44534866    -0.82450
Mg1138     Mg  0.95176354  0.99799302  0.41588253     1.58180
O1139       O  0.10851556  0.01757077  0.59176460    -0.80790
O1140       O  0.86629941  0.94743469  0.45638686    -0.82480
C1141       C  0.95967936  0.39866407  0.83254016     0.03410
C1142       C  0.92585769  0.37650744  0.82633700    -0.12740
C1143       C  0.92020656  0.35727735  0.79077006     0.00910
C1144       C  0.94794170  0.36126950  0.76192869    -0.11270
C1145       C  0.98117683  0.38275294  0.76846300     0.03400
C1146       C  0.98731398  0.40086902  0.80353420    -0.10690
H1147       H  0.90434430  0.37424345  0.84880467     0.08990
H1148       H  0.94411466  0.34704083  0.73445621     0.06520
H1149       H  0.01366994  0.41709528  0.80801722     0.06370
C1150       C  0.09572924  0.38132938  0.65156654     0.03410
C1151       C  0.09604707  0.35015449  0.62635949    -0.12740
C1152       C  0.12199609  0.34951877  0.59565428     0.00910
C1153       C  0.14747697  0.38028712  0.59027261    -0.11270
C1154       C  0.14728422  0.41116996  0.61592485     0.03400
C1155       C  0.12102786  0.41203292  0.64623887    -0.10690
H1156       H  0.07617710  0.32646667  0.63072960     0.08990
H1157       H  0.16767847  0.38009080  0.56648773     0.06520
H1158       H  0.12104424  0.43593333  0.66627520     0.06370
C1159       C  0.09883480  0.17053903  0.45605496     0.03410
C1160       C  0.09767556  0.19881803  0.48441026    -0.12740
C1161       C  0.11959914  0.23224605  0.48058959     0.00910
C1162       C  0.14346654  0.23747917  0.44872709    -0.11270
C1163       C  0.14616877  0.20935816  0.42028077     0.03400
C1164       C  0.12363947  0.17543647  0.42393185    -0.10690
H1165       H  0.07974136  0.19479793  0.50963628     0.08990
H1166       H  0.16004921  0.26381019  0.44611640     0.06520
H1167       H  0.12485438  0.15351561  0.40184051     0.06370
C1168       C  0.29209372  0.58048432  0.64854871     0.03410
C1169       C  0.32654262  0.57496369  0.62722977    -0.12740
C1170       C  0.32844956  0.54613296  0.59841722     0.00910
C1171       C  0.29623486  0.52334081  0.59137633    -0.11270
C1172       C  0.26259776  0.52812122  0.61302483     0.03400
C1173       C  0.26068667  0.55633952  0.64159046    -0.10690
H1174       H  0.35109984  0.59359321  0.63212760     0.08990
H1175       H  0.29777302  0.50068715  0.56997862     0.06520
H1176       H  0.23448849  0.55960579  0.65835176     0.06370
O1177       O  0.23080514  0.28617121  0.18871549    -0.88070
C1178       C  0.33878480  0.27328887  0.23768462     0.87960
Mg1179     Mg  0.18101278  0.30931125  0.21872223     1.58150
O1180       O  0.28491988  0.18726242  0.23141293    -0.87800
O1181       O  0.24679509  0.23316774  0.15919315    -0.75130
C1182       C  0.16946849  0.21840255  0.38563949     0.93010
O1183       O  0.26894512  0.34147782  0.25262228    -0.74940
O1184       O  0.16685659  0.25220321  0.37168739    -0.82450
Mg1185     Mg  0.28395567  0.31952301  0.19228214     1.57960
C1186       C  0.28366196  0.11586059  0.33224645     0.92930
O1187       O  0.31016209  0.30857045  0.13179942    -0.80710
H1188       H  0.26065448  0.14538924  0.20063596    -0.06060
C1189       C  0.27724460  0.24034086  0.33725970     0.87870
O1190       O  0.15873037  0.24921196  0.23478600    -0.75220
O1191       O  0.31250010  0.26834281  0.21445107    -0.87990
O1192       O  0.30882936  0.13140937  0.31046942    -0.80800
C1193       C  0.38410879  0.16894122  0.21542902     0.93050
C1194       C  0.33055313  0.28242676  0.11596614     0.92900
Mg1195     Mg  0.21764642  0.18103728  0.31037052     1.57950
O1196       O  0.19079798  0.19266452  0.37038868    -0.80720
O1197       O  0.23301466  0.15761838  0.25055615    -0.74960
O1198       O  0.36719436  0.18997943  0.19069005    -0.80800
O1199       O  0.25166761  0.37141467  0.16762006    -0.82510
O1200       O  0.13285237  0.31086696  0.31052815    -0.80830
C1201       C  0.25996088  0.16256946  0.22644650     0.87340
O1202       O  0.18847998  0.23133140  0.28703008    -0.87970
O1203       O  0.27092749  0.21491404  0.31336690    -0.88080
O1204       O  0.25357111  0.26764386  0.34265179    -0.75130
Mg1205     Mg  0.30701039  0.21620439  0.18053654     1.57970
O1206       O  0.37104354  0.16464264  0.24949405    -0.82510
H1207       H  0.19775394  0.26296844  0.14801407    -0.06230
O1208       O  0.21592548  0.31307954  0.27083025    -0.87780
H1209       H  0.24188259  0.35297388  0.30300309    -0.06060
H1210       H  0.14752319  0.19918244  0.26261168    -0.06230
C1211       C  0.24177272  0.33674677  0.27651985     0.87310
C1212       C  0.22411036  0.26129328  0.16440772     0.87900
C1213       C  0.16404606  0.22552902  0.26195693     0.87950
H1214       H  0.30399048  0.23988220  0.35324694    -0.06210
O1215       O  0.34416689  0.25026255  0.26539242    -0.75240
Mg1216     Mg  0.19307067  0.28405695  0.32101362     1.58000
H1217       H  0.35728039  0.29797182  0.23454204    -0.06230
C1218       C  0.21783050  0.38542321  0.17183728     0.92930
O1219       O  0.13015783  0.33532280  0.25138605    -0.82470
C1220       C  0.11664688  0.33194722  0.28531467     0.92990
O1221       O  0.33261056  0.24844099  0.12967017    -0.82450
Mg1222     Mg  0.32058749  0.19107609  0.28302131     1.58180
O1223       O  0.19246242  0.36936218  0.19290981    -0.80790
O1224       O  0.24990450  0.12995639  0.33645393    -0.82480
C1225       C  0.86767595  0.34198595  0.10521216     0.03410
C1226       C  0.89620543  0.34106204  0.13345637    -0.12740
C1227       C  0.89690077  0.36935511  0.16188536     0.00910
C1228       C  0.86829822  0.39754112  0.16302148    -0.11270
C1229       C  0.83975710  0.39823562  0.13484641     0.03400
C1230       C  0.83896381  0.37012543  0.10626354    -0.10690
H1231       H  0.91855977  0.31923249  0.13254135     0.08990
H1232       H  0.86897716  0.41966913  0.18498834     0.06520
H1233       H  0.81690558  0.37091230  0.08418877     0.06370
C1234       C  0.89826829  0.17087246  0.95882673     0.03410
C1235       C  0.87714087  0.17696133  0.92439031    -0.12740
C1236       C  0.85407801  0.21049512  0.92002303     0.00910
C1237       C  0.85173417  0.23663926  0.95028155    -0.11270
C1238       C  0.87232548  0.23063485  0.98424637     0.03400
C1239       C  0.89627192  0.19849845  0.98785628    -0.10690
H1240       H  0.87845689  0.15590799  0.90148128     0.08990
H1241       H  0.83332323  0.26172345  0.94748976     0.06520
H1242       H  0.91307923  0.19460819  0.01382751     0.06370
C1243       C  0.04366256  0.40028044  0.33276010     0.03410
C1244       C  0.07743712  0.37773379  0.32750015    -0.12740
C1245       C  0.08086111  0.35324345  0.29501605     0.00910
C1246       C  0.05027317  0.35097002  0.26917855    -0.11270
C1247       C  0.01694633  0.37300334  0.27445098     0.03400
C1248       C  0.01413592  0.39809450  0.30572285    -0.10690
H1249       H  0.10076062  0.37949017  0.34813060     0.08990
H1250       H  0.05245132  0.33179963  0.24467777     0.06520
H1251       H  0.98864378  0.41585276  0.30926836     0.06370
C1252       C  0.70480145  0.58140737  0.14979856     0.03410
C1253       C  0.67401757  0.57772012  0.12328052    -0.12740
C1254       C  0.66983426  0.54355850  0.10148283     0.00910
C1255       C  0.69660386  0.51403749  0.10606047    -0.11270
C1256       C  0.72679829  0.51762091  0.13245223     0.03400
C1257       C  0.73083653  0.55122778  0.15414210    -0.10690
H1258       H  0.65319232  0.60077219  0.12023781     0.08990
H1259       H  0.69371281  0.48795361  0.08920081     0.06520
H1260       H  0.75447743  0.55395781  0.17437338     0.06370
C1261       C  0.91116772  0.88287546  0.85366641     0.03410
C1262       C  0.91109051  0.85388866  0.88134374    -0.12740
C1263       C  0.88194160  0.85294268  0.90899679     0.00910
C1264       C  0.85406992  0.88185707  0.91014492    -0.11270
C1265       C  0.85462556  0.91100510  0.88282291     0.03400
C1266       C  0.88312495  0.91172965  0.85454307    -0.10690
H1267       H  0.93281029  0.83142944  0.88056329     0.08990
H1268       H  0.83121032  0.88096186  0.93142333     0.06520
H1269       H  0.88303072  0.93417340  0.83292316     0.06370
C1270       C  0.08063692  0.85210939  0.70543878     0.03410
C1271       C  0.05434080  0.85491107  0.73559580    -0.12740
C1272       C  0.02407592  0.88148755  0.73413734     0.00910
C1273       C  0.01929581  0.90500782  0.70193369    -0.11270
C1274       C  0.04453162  0.90236957  0.67099468     0.03400
C1275       C  0.07565331  0.87583757  0.67264660    -0.10690
H1276       H  0.05773681  0.83659333  0.76057623     0.08990
H1277       H  0.99547717  0.92524034  0.70077657     0.06520
H1278       H  0.09591779  0.87403481  0.64901468     0.06370
C1279       C  0.71159628  0.08314500  0.85365390     0.03410
C1280       C  0.67618794  0.07684614  0.87332119    -0.12740
C1281       C  0.67114034  0.04334519  0.89620536     0.00910
C1282       C  0.70139806  0.01698709  0.89903762    -0.11270
C1283       C  0.73613561  0.02381138  0.88014007     0.03400
C1284       C  0.74112969  0.05624427  0.85744112    -0.10690
H1285       H  0.65302817  0.09764851  0.87095115     0.08990
H1286       H  0.69802465  0.99105871  0.91602560     0.06520
H1287       H  0.76839108  0.06046544  0.84268466     0.06370
C1288       C  0.84786245  0.70720551  0.07923663     0.03410
C1289       C  0.87106739  0.67374542  0.07516828    -0.12740
C1290       C  0.89567802  0.66956641  0.04278015     0.00910
C1291       C  0.89772537  0.69942955  0.01613917    -0.11270
C1292       C  0.87522704  0.73256067  0.02051044     0.03400
C1293       C  0.84950181  0.73563645  0.05124959    -0.10690
H1294       H  0.86963771  0.65119818  0.09657727     0.08990
H1295       H  0.91723176  0.69692572  0.99189673     0.06520
H1296       H  0.83117160  0.76078975  0.05394308     0.06370
O1297       O  0.20943773  0.70456342  0.71023400    -0.88070
C1298       C  0.32566333  0.73005295  0.70159351     0.87960
Mg1299     Mg  0.16489240  0.74846162  0.70357304     1.58150
O1300       O  0.29221016  0.71015674  0.79492137    -0.87800
O1301       O  0.23094769  0.65911761  0.74791828    -0.75130
C1302       C  0.21347535  0.88599716  0.82484098     0.93010
O1303       O  0.24882442  0.76936766  0.65716562    -0.74940
O1304       O  0.19713436  0.88162704  0.79240132    -0.82450
Mg1305     Mg  0.25255619  0.70354377  0.66521027     1.57960
C1306       C  0.32794172  0.78798323  0.88340732     0.92930
O1307       O  0.25945569  0.63792696  0.66354464    -0.80710
H1308       H  0.27112286  0.67494533  0.83463359    -0.06060
C1309       C  0.29839101  0.82546292  0.76873693     0.87870
O1310       O  0.15765253  0.75453636  0.76921318    -0.75220
O1311       O  0.29738420  0.70962942  0.70853070    -0.87990
O1312       O  0.34131186  0.76425735  0.85888601    -0.80800
C1313       C  0.38685698  0.67379678  0.78640101     0.93050
C1314       C  0.28580395  0.61442428  0.67352340     0.92900
Mg1315     Mg  0.24830974  0.79635795  0.83337088     1.57950
O1316       O  0.23726468  0.86142828  0.83812532    -0.80720
O1317       O  0.25376303  0.73049668  0.84024183    -0.74960
O1318       O  0.36284341  0.66053393  0.76204525    -0.80800
O1319       O  0.20517585  0.69494988  0.62010328    -0.82510
O1320       O  0.14014831  0.84030584  0.73583637    -0.80830
C1321       C  0.27253379  0.70383464  0.82367687     0.87340
O1322       O  0.20490552  0.79107451  0.78855198    -0.87970
O1323       O  0.29178695  0.79697642  0.78868954    -0.88080
O1324       O  0.27169041  0.84234259  0.75028345    -0.75130
Mg1325     Mg  0.29738242  0.66510364  0.75170728     1.57970
O1326       O  0.38218974  0.70633854  0.80253780    -0.82510
H1327       H  0.17430034  0.66614412  0.73475608    -0.06230
O1328       O  0.21058805  0.79090014  0.70224989    -0.87780
H1329       H  0.23326319  0.82542598  0.66256241    -0.06060
H1330       H  0.16467368  0.77195853  0.82446413    -0.06230
C1331       C  0.23073231  0.79660614  0.67359671     0.87310
C1332       C  0.20347007  0.67632975  0.73089124     0.87900
C1333       C  0.17538545  0.77267153  0.79548279     0.87950
H1334       H  0.32764135  0.83574506  0.76657505    -0.06210
O1335       O  0.34281262  0.74848147  0.72807456    -0.75240
Mg1336     Mg  0.20554595  0.83584240  0.74546876     1.58000
H1337       H  0.33566471  0.73278592  0.67229974    -0.06230
C1338       C  0.17357691  0.71279244  0.61488707     0.92930
O1339       O  0.11956283  0.79628413  0.69412550    -0.82470
C1340       C  0.11541874  0.82820183  0.71163282     0.92990
O1341       O  0.30575298  0.61955275  0.70381960    -0.82450
Mg1342     Mg  0.33671620  0.75359444  0.79393462     1.58180
O1343       O  0.16103706  0.73766301  0.63866591    -0.80790
O1344       O  0.29555651  0.80469938  0.87888652    -0.82480
C1345       C  0.82290255  0.96701742  0.91152384    -0.11990
C1346       C  0.82374672  0.93926252  0.88246064     0.05010
C1347       C  0.79578210  0.93913786  0.85316085    -0.07280
C1348       C  0.76767651  0.96769208  0.85314541    -0.08020
C1349       C  0.76696248  0.99568255  0.88194637    -0.02580
C1350       C  0.79496257  0.99602147  0.91144667     0.04240
N1351       N  0.79581237  0.02528180  0.94088625     0.66750
H1352       H  0.84470829  0.96637596  0.93377874     0.15650
H1353       H  0.74568654  0.96774233  0.83098421     0.15360
N1354       N  0.79488072  0.90971834  0.82417823     0.74450
O1355       O  0.81273164  0.01890819  0.97237184    -0.39000
O1356       O  0.78315916  0.05870961  0.93441165    -0.38940
O1357       O  0.80078150  0.87503219  0.83313638    -0.39640
O1358       O  0.78370216  0.91764453  0.79058524    -0.39710
C1359       C  0.88053091  0.83120023  0.97560988    -0.11990
C1360       C  0.88000549  0.82155708  0.93662354     0.05010
C1361       C  0.87832936  0.78268433  0.92495010    -0.07280
C1362       C  0.87740526  0.75424372  0.95316764    -0.08020
C1363       C  0.87819867  0.76380520  0.99233643    -0.02580
C1364       C  0.88022579  0.80281491  0.00374295     0.04240
N1365       N  0.88316544  0.81414062  0.04337474     0.66750
H1366       H  0.88250793  0.86113777  0.98415102     0.15650
H1367       H  0.87476348  0.72441559  0.94449606     0.15360
N1368       N  0.87646045  0.77161783  0.88507866     0.74450
O1369       O  0.90621546  0.79702843  0.06564817    -0.39000
O1370       O  0.86586212  0.84387991  0.05515004    -0.38940
O1371       O  0.89064981  0.73994132  0.87426123    -0.39640
O1372       O  0.85751478  0.79144173  0.86126350    -0.39710
C1373       C  0.95675039  0.88044652  0.75574399    -0.11990
C1374       C  0.99588898  0.88340700  0.76544512     0.05010
C1375       C  0.00715464  0.88593840  0.80440874    -0.07280
C1376       C  0.97868585  0.88459166  0.83274350    -0.08020
C1377       C  0.93965371  0.88195761  0.82286369    -0.02580
C1378       C  0.92835720  0.87955590  0.78402008     0.04240
N1379       N  0.88865845  0.87464790  0.77293916     0.66750
H1380       H  0.94835596  0.87737268  0.72590455     0.15650
H1381       H  0.98682581  0.88686316  0.86271524     0.15360
N1382       N  0.04680402  0.89107051  0.81562012     0.74450
O1383       O  0.87663780  0.88821453  0.74149720    -0.39000
O1384       O  0.86678154  0.85290902  0.79209771    -0.38940
O1385       O  0.06868100  0.91304372  0.79667818    -0.39640
O1386       O  0.05887465  0.87708039  0.84685728    -0.39710
C1387       C  0.86576671  0.27527098  0.08310026    -0.11990
C1388       C  0.86890272  0.31426075  0.07382162     0.05010
C1389       C  0.87226272  0.32603902  0.03515230    -0.07280
C1390       C  0.87272217  0.29792364  0.00656618    -0.08020
C1391       C  0.86944846  0.25873866  0.01569294    -0.02580
C1392       C  0.86515028  0.24724933  0.05445953     0.04240
N1393       N  0.85880265  0.20778966  0.06518139     0.66750
H1394       H  0.86237175  0.26678938  0.11286505     0.15650
H1395       H  0.87689193  0.30664809  0.97697453     0.15360
N1396       N  0.87613839  0.36590546  0.02443270     0.74450
O1397       O  0.87273603  0.19488429  0.09611671    -0.39000
O1398       O  0.83569554  0.18709277  0.04625017    -0.38940
O1399       O  0.89506856  0.38897679  0.04513849    -0.39640
O1400       O  0.86359594  0.37741364  0.99237562    -0.39710
C1401       C  0.91818812  0.36837775  0.22880423    -0.11990
C1402       C  0.92811007  0.37042367  0.18991175     0.05010
C1403       C  0.96716951  0.37279824  0.17859917    -0.07280
C1404       C  0.99547358  0.37304218  0.20704367    -0.08020
C1405       C  0.98566764  0.37071933  0.24610695    -0.02580
C1406       C  0.94651477  0.36780147  0.25717876     0.04240
N1407       N  0.93504668  0.36295186  0.29660550     0.66750
H1408       H  0.88811502  0.36588323  0.23698695     0.15650
H1409       H  0.02542227  0.37628436  0.19866698     0.15360
N1410       N  0.97857374  0.37598497  0.13888878     0.74450
O1411       O  0.90418070  0.37806871  0.30865499    -0.39000
O1412       O  0.95316903  0.34006597  0.31821591    -0.38940
O1413       O  0.95856153  0.39516671  0.11541721    -0.39640
O1414       O  0.01064350  0.36261684  0.12793989    -0.39710
C1415       C  0.79438645  0.49647770  0.13169136    -0.11990
C1416       C  0.75536700  0.48677749  0.13603685     0.05010
C1417       C  0.74431819  0.44792199  0.14064737    -0.07280
C1418       C  0.77271885  0.41954551  0.13906877    -0.08020
C1419       C  0.81157071  0.42929298  0.13435544    -0.02580
C1420       C  0.82289955  0.46816322  0.13077173     0.04240
N1421       N  0.86260855  0.47932103  0.12517359     0.66750
H1422       H  0.80249686  0.52628265  0.12743232     0.15650
H1423       H  0.76471665  0.38963599  0.14275388     0.15360
N1424       N  0.70492610  0.43693822  0.14793990     0.74450
O1425       O  0.87399621  0.51214476  0.13580489    -0.39000
O1426       O  0.88558987  0.45806573  0.10665913    -0.38940
O1427       O  0.69252778  0.40475180  0.13652849    -0.39640
O1428       O  0.68372362  0.45729399  0.16934647    -0.39710
C1429       C  0.08621939  0.30729559  0.55152354    -0.11990
C1430       C  0.12151857  0.31730012  0.56848798     0.05010
C1431       C  0.15576780  0.29826741  0.55743424    -0.07280
C1432       C  0.15407212  0.27095050  0.52819648    -0.08020
C1433       C  0.11896006  0.26159221  0.51064516    -0.02580
C1434       C  0.08442326  0.27962313  0.52250668     0.04240
N1435       N  0.04786393  0.27147484  0.50461085     0.66750
H1436       H  0.06012488  0.32241641  0.55975389     0.15650
H1437       H  0.18020847  0.25605650  0.51965576     0.15360
N1438       N  0.19195044  0.30531272  0.57637960     0.74450
O1439       O  0.01708071  0.27364946  0.52392440    -0.39000
O1440       O  0.04568173  0.26627117  0.46878182    -0.38940
O1441       O  0.19305573  0.30940650  0.61237778    -0.39640
O1442       O  0.22325512  0.30276959  0.55796427    -0.39710
C1443       C  0.16595602  0.47812664  0.60201114    -0.11990
C1444       C  0.17671777  0.44099224  0.61319828     0.05010
C1445       C  0.21538299  0.43254294  0.62179006    -0.07280
C1446       C  0.24253868  0.46178592  0.62008438    -0.08020
C1447       C  0.23198452  0.49934143  0.61007997    -0.02580
C1448       C  0.19325877  0.50790017  0.59971057     0.04240
N1449       N  0.18118074  0.54522552  0.58564566     0.66750
H1450       H  0.13606213  0.48360163  0.59486491     0.15650
H1451       H  0.27212716  0.45545635  0.62807829     0.15360
N1452       N  0.22741323  0.39479586  0.63328652     0.74450
O1453       O  0.14822393  0.54929343  0.57071016    -0.39000
O1454       O  0.20348970  0.57387195  0.58606168    -0.38940
O1455       O  0.25892863  0.38133535  0.62099134    -0.39640
O1456       O  0.20923798  0.37695387  0.65917112    -0.39710
C1457       C  0.04148955  0.35838998  0.74237047    -0.11990
C1458       C  0.01095932  0.38446963  0.73916477     0.05010
C1459       C  0.00879498  0.41024033  0.70795659    -0.07280
C1460       C  0.03774160  0.40867395  0.68011280    -0.08020
C1461       C  0.06814611  0.38230439  0.68305461    -0.02580
C1462       C  0.07052225  0.35676961  0.71459237     0.04240
N1463       N  0.10157117  0.32936042  0.71909115     0.66750
H1464       H  0.04240173  0.33908948  0.76680898     0.15650
H1465       H  0.03656683  0.42795776  0.65567030     0.15360
N1466       N  0.97774774  0.43763127  0.70384767     0.74450
O1467       O  0.09816567  0.30184826  0.74252238    -0.39000
O1468       O  0.13352459  0.33393797  0.70229178    -0.38940
O1469       O  0.96054728  0.45100201  0.73290971    -0.39640
O1470       O  0.96945607  0.45100946  0.67114942    -0.39710
C1471       C  0.35023138  0.23240914  0.96817574    -0.11990
C1472       C  0.38156559  0.23557944  0.99325413     0.05010
C1473       C  0.41356729  0.21061267  0.99023699    -0.07280
C1474       C  0.41322312  0.18275466  0.96136637    -0.08020
C1475       C  0.38175091  0.17944162  0.93638038    -0.02580
C1476       C  0.35005923  0.20481233  0.93917055     0.04240
N1477       N  0.31839401  0.20377676  0.91234705     0.66750
H1478       H  0.32630251  0.25237775  0.97064982     0.15650
H1479       H  0.43714102  0.16279591  0.95884493     0.15360
N1480       N  0.44590104  0.21257097  0.01628640     0.74450
O1481       O  0.28521130  0.21472294  0.92265266    -0.39000
O1482       O  0.32425958  0.19632092  0.87732209    -0.38940
O1483       O  0.44139492  0.22346144  0.05060189    -0.39640
O1484       O  0.47850675  0.19989249  0.00611858    -0.39710
C1485       C  0.47770276  0.11445378  0.83226261    -0.11990
C1486       C  0.43935388  0.12049131  0.82135284     0.05010
C1487       C  0.42913346  0.12302213  0.78232188    -0.07280
C1488       C  0.45789072  0.11968104  0.75474532    -0.08020
C1489       C  0.49637498  0.11378279  0.76543594    -0.02580
C1490       C  0.50653120  0.11020593  0.80462208     0.04240
N1491       N  0.54529550  0.10127430  0.81664089     0.66750
H1492       H  0.48481635  0.11158878  0.86243312     0.15650
H1493       H  0.45039211  0.12333492  0.72473508     0.15360
N1494       N  0.39005422  0.12974661  0.77030985     0.74450
O1495       O  0.55739377  0.11237424  0.84901480    -0.39000
O1496       O  0.56607899  0.07884942  0.79695706    -0.38940
O1497       O  0.36872366  0.15283662  0.78860838    -0.39640
O1498       O  0.37760232  0.11452900  0.73979818    -0.39710
C1499       C  0.30034530  0.99796476  0.87234208    -0.11990
C1500       C  0.26195609  0.01086009  0.87190320     0.05010
C1501       C  0.25395610  0.05072226  0.87409174    -0.07280
C1502       C  0.28455475  0.07634816  0.87846038    -0.08020
C1503       C  0.32280623  0.06336871  0.87869566    -0.02580
C1504       C  0.33108904  0.02369318  0.87503740     0.04240
N1505       N  0.37002120  0.00892241  0.87417416     0.66750
H1506       H  0.30648279  0.96741322  0.87151949     0.15650
H1507       H  0.27861373  0.10695718  0.87970148     0.15360
N1508       N  0.21545514  0.06579785  0.87034846     0.74450
O1509       O  0.39682897  0.02546005  0.89230264    -0.39000
O1510       O  0.37740556  0.97793551  0.85669267    -0.38940
O1511       O  0.20547806  0.09530987  0.88905732    -0.39640
O1512       O  0.19280961  0.05241874  0.84528451    -0.39710
C1513       C  0.22907744  0.91536883  0.36012175    -0.11990
C1514       C  0.19011651  0.92512114  0.36412310     0.05010
C1515       C  0.17883400  0.96395879  0.36744928    -0.07280
C1516       C  0.20709446  0.99231057  0.36679652    -0.08020
C1517       C  0.24623851  0.98281238  0.36319353    -0.02580
C1518       C  0.25752211  0.94388583  0.35895608     0.04240
N1519       N  0.29712404  0.93296265  0.35261463     0.66750
H1520       H  0.23712210  0.88543328  0.35708043     0.15650
H1521       H  0.19854745  0.02201413  0.37104174     0.15360
N1522       N  0.13920276  0.97501800  0.37308856     0.74450
O1523       O  0.30919005  0.90055126  0.36375232    -0.39000
O1524       O  0.31899020  0.95369297  0.33230827    -0.38940
O1525       O  0.11796275  0.95661445  0.39611216    -0.39640
O1526       O  0.12659467  0.00572373  0.35833711    -0.39710
C1527       C  0.12565588  0.77758567  0.42107967    -0.11990
C1528       C  0.12849921  0.81632970  0.43153049     0.05010
C1529       C  0.13237787  0.82687229  0.47050870    -0.07280
C1530       C  0.13239304  0.79783869  0.49825068    -0.08020
C1531       C  0.12962296  0.75885409  0.48786895    -0.02580
C1532       C  0.12714186  0.74859058  0.44860204     0.04240
N1533       N  0.12766118  0.70919633  0.43597872     0.66750
H1534       H  0.12392504  0.76981687  0.39095449     0.15650
H1535       H  0.13346827  0.80586226  0.52830554     0.15360
N1536       N  0.13549952  0.86644550  0.48250524     0.74450
O1537       O  0.10730127  0.69887586  0.40771908    -0.39000
O1538       O  0.15158531  0.68572440  0.45007481    -0.38940
O1539       O  0.11851618  0.89282675  0.46421788    -0.39640
O1540       O  0.15314866  0.87489395  0.51310110    -0.39710
C1541       C  0.05346094  0.90793994  0.30407317    -0.11990
C1542       C  0.06740976  0.87177148  0.31547970     0.05010
C1543       C  0.04973959  0.83794766  0.30138410    -0.07280
C1544       C  0.01877998  0.84127336  0.27609687    -0.08020
C1545       C  0.00566608  0.87735101  0.26382270    -0.02580
C1546       C  0.02274348  0.91125118  0.27832792     0.04240
N1547       N  0.00905115  0.94892820  0.26781015     0.66750
H1548       H  0.06610824  0.93385668  0.31594113     0.15650
H1549       H  0.00616039  0.81534634  0.26419998     0.15360
N1550       N  0.06380856  0.80019105  0.31079912     0.74450
O1551       O  0.97343985  0.95511081  0.26326650    -0.39000
O1552       O  0.03215795  0.97697235  0.26647534    -0.38940
O1553       O  0.04041600  0.77276390  0.31553081    -0.39640
O1554       O  0.09953753  0.79318030  0.31031019    -0.39710
C1555       C  0.84290454  0.69679820  0.44778965    -0.11990
C1556       C  0.87906199  0.68093713  0.43883229     0.05010
C1557       C  0.91296685  0.69685465  0.45489516    -0.07280
C1558       C  0.90965385  0.72819909  0.47958157    -0.08020
C1559       C  0.87350265  0.74334117  0.48920733    -0.02580
C1560       C  0.83959030  0.72797119  0.47285054     0.04240
N1561       N  0.80200628  0.74391470  0.48072364     0.66750
H1562       H  0.81712211  0.68540699  0.43434683     0.15650
H1563       H  0.93540931  0.73967492  0.49303609     0.15360
N1564       N  0.95057483  0.68071517  0.44796868     0.74450
O1565       O  0.79777050  0.77963837  0.48574845    -0.39000
O1566       O  0.77237397  0.72286392  0.47896483    -0.38940
O1567       O  0.97999972  0.70211923  0.44743021    -0.39640
O1568       O  0.95504442  0.64475697  0.44620294    -0.39710
C1569       C  0.97433107  0.61829539  0.33291724    -0.11990
C1570       C  0.93540659  0.62146659  0.32270995     0.05010
C1571       C  0.92440206  0.62363227  0.28385336    -0.07280
C1572       C  0.95309991  0.62326051  0.25583728    -0.08020
C1573       C  0.99220516  0.62004943  0.26582677    -0.02580
C1574       C  0.00303821  0.61661324  0.30483977     0.04240
N1575       N  0.04238740  0.60986423  0.31630595     0.66750
H1576       H  0.98214307  0.61558081  0.36294697     0.15650
H1577       H  0.94489114  0.62654602  0.22597768     0.15360
N1578       N  0.88463664  0.62682091  0.27240549     0.74450
O1579       O  0.05448845  0.62238965  0.34815494    -0.39000
O1580       O  0.06363890  0.58745751  0.29710039    -0.38940
O1581       O  0.86118662  0.64674271  0.29179679    -0.39640
O1582       O  0.87348355  0.61197824  0.24121489    -0.39710
C1583       C  0.76290911  0.53678700  0.36370609    -0.11990
C1584       C  0.76841489  0.50309775  0.38496099     0.05010
C1585       C  0.80209242  0.49786308  0.40735273    -0.07280
C1586       C  0.82946049  0.52746488  0.40783272    -0.08020
C1587       C  0.82384616  0.56104432  0.38644149    -0.02580
C1588       C  0.79023815  0.56616117  0.36411851     0.04240
N1589       N  0.78340450  0.60048845  0.34179335     0.66750
H1590       H  0.73674136  0.54026109  0.34698171     0.15650
H1591       H  0.85573559  0.52420582  0.42440189     0.15360
N1592       N  0.80896467  0.46356859  0.42978560     0.74450
O1593       O  0.76179744  0.59921627  0.31261711    -0.39000
O1594       O  0.79570997  0.63278058  0.35294425    -0.38940
O1595       O  0.79338547  0.43194188  0.42111150    -0.39640
O1596       O  0.83306082  0.46413682  0.45698582    -0.39710
C1597       C  0.58030677  0.85323220  0.22884600    -0.11990
C1598       C  0.56974234  0.86480152  0.19180551     0.05010
C1599       C  0.53108823  0.87410779  0.18320574    -0.07280
C1600       C  0.50401281  0.87259046  0.21267701    -0.08020
C1601       C  0.51447806  0.86162793  0.24995085    -0.02580
C1602       C  0.55292680  0.85082051  0.25835221     0.04240
N1603       N  0.56438868  0.83639090  0.29558097     0.66750
H1604       H  0.60996379  0.84512437  0.23427638     0.15650
H1605       H  0.47446569  0.88103206  0.20680022     0.15360
N1606       N  0.51885559  0.88555442  0.14530897     0.74450
O1607       O  0.59969574  0.83404284  0.30424941    -0.39000
O1608       O  0.53992601  0.82202399  0.31828803    -0.38940
O1609       O  0.54154385  0.90307384  0.12303222    -0.39640
O1610       O  0.48416343  0.88105056  0.13514237    -0.39710
C1611       C  0.60032486  0.78146426  0.01793069    -0.11990
C1612       C  0.63079581  0.75508942  0.01678305     0.05010
C1613       C  0.66033605  0.75595145  0.04482172    -0.07280
C1614       C  0.65838641  0.78424977  0.07335178    -0.08020
C1615       C  0.62806482  0.81083629  0.07414460    -0.02580
C1616       C  0.59865971  0.80970489  0.04624213     0.04240
N1617       N  0.56765181  0.83725843  0.04574849     0.66750
H1618       H  0.57801507  0.78031743  0.99611754     0.15650
H1619       H  0.68058497  0.78573377  0.09523535     0.15360
N1620       N  0.69162972  0.72844249  0.04551052     0.74450
O1621       O  0.53496967  0.82789830  0.03273074    -0.39000
O1622       O  0.57385404  0.87199069  0.05428888    -0.38940
O1623       O  0.70166186  0.71043605  0.01564456    -0.39640
O1624       O  0.71086382  0.72341865  0.07590985    -0.39710
C1625       C  0.70013168  0.99578997  0.12975603    -0.11990
C1626       C  0.73929638  0.98538063  0.13092989     0.05010
C1627       C  0.74974185  0.94608583  0.13299781    -0.07280
C1628       C  0.72079244  0.91832757  0.13244031    -0.08020
C1629       C  0.68183338  0.92876415  0.13121381    -0.02580
C1630       C  0.67106424  0.96793286  0.12994587     0.04240
N1631       N  0.63130229  0.97989324  0.12764321     0.66750
H1632       H  0.69215590  0.02583826  0.12733868     0.15650
H1633       H  0.72863990  0.88819410  0.13428725     0.15360
N1634       N  0.78919261  0.93383665  0.13698475     0.74450
O1635       O  0.62096380  0.01174874  0.14176074    -0.39000
O1636       O  0.60724857  0.96077921  0.10823619    -0.38940
O1637       O  0.81144469  0.95075429  0.16018963    -0.39640
O1638       O  0.80058685  0.90337997  0.12074988    -0.39710
C1639       C  0.16981194  0.52468073  0.87914483    -0.11990
C1640       C  0.18136948  0.56312366  0.87671678     0.05010
C1641       C  0.22079822  0.57300830  0.87742508    -0.07280
C1642       C  0.24804218  0.54364534  0.87983338    -0.08020
C1643       C  0.23674969  0.50498581  0.88208529    -0.02580
C1644       C  0.19708215  0.49529022  0.88268454     0.04240
N1645       N  0.18407070  0.45634054  0.88811569     0.66750
H1646       H  0.13930837  0.51778157  0.87973231     0.15650
H1647       H  0.27841522  0.55095686  0.87856566     0.15360
N1648       N  0.23362154  0.61233964  0.87501069     0.74450
O1649       O  0.20154068  0.43420237  0.91100288    -0.39000
O1650       O  0.15263427  0.44531962  0.87345994    -0.38940
O1651       O  0.21482618  0.63678822  0.85581208    -0.39640
O1652       O  0.26520787  0.62224485  0.89013947    -0.39710
C1653       C  0.00788010  0.62189202  0.78891610    -0.11990
C1654       C  0.01826204  0.63727850  0.75331453     0.05010
C1655       C  0.05667594  0.64905980  0.74612855    -0.07280
C1656       C  0.08415782  0.64363787  0.77526497    -0.08020
C1657       C  0.07336161  0.62791921  0.81073447    -0.02580
C1658       C  0.03493736  0.61724585  0.81777844     0.04240
N1659       N  0.02288092  0.60211743  0.85420899     0.66750
H1660       H  0.97846271  0.61251052  0.79397184     0.15650
H1661       H  0.11367416  0.65293697  0.77102876     0.15360
N1662       N  0.06775683  0.66755606  0.71067576     0.74450
O1663       O  0.99032582  0.61119838  0.86776810    -0.39000
O1664       O  0.04396061  0.57867787  0.87229314    -0.38940
O1665       O  0.04324085  0.68556195  0.69077001    -0.39640
O1666       O  0.10285737  0.66938465  0.70110335    -0.39710
C1667       C  0.12166124  0.74387261  0.95475482    -0.11990
C1668       C  0.11715315  0.73284079  0.99318950     0.05010
C1669       C  0.11363103  0.69340259  0.00271980    -0.07280
C1670       C  0.11571575  0.66605309  0.97324887    -0.08020
C1671       C  0.12029294  0.67740553  0.93490220    -0.02580
C1672       C  0.12338096  0.71670727  0.92556392     0.04240
N1673       N  0.12969116  0.72948042  0.88686852     0.66750
H1674       H  0.12554536  0.77393534  0.94745393     0.15650
H1675       H  0.11266938  0.63578492  0.98004248     0.15360
N1676       N  0.10693441  0.68074310  0.04152200     0.74450
O1677       O  0.11265702  0.75914709  0.87460649    -0.39000
O1678       O  0.15456959  0.71312354  0.86596616    -0.38940
O1679       O  0.08504249  0.69965547  0.06354658    -0.39640
O1680       O  0.11953873  0.64850981  0.05258586    -0.39710
C1681       C  0.16775968  0.02055765  0.11188788    -0.11990
C1682       C  0.17700163  0.05910415  0.11859020     0.05010
C1683       C  0.21553090  0.07055605  0.12483946    -0.07280
C1684       C  0.24420118  0.04255768  0.12412645    -0.08020
C1685       C  0.23516422  0.00390419  0.11716140    -0.02580
C1686       C  0.19661458  0.99263263  0.11020480     0.04240
N1687       N  0.18653572  0.95370208  0.10017830     0.66750
H1688       H  0.13801220  0.01256671  0.10665150     0.15650
H1689       H  0.27374561  0.05076495  0.13024547     0.15360
N1690       N  0.22591172  0.10993818  0.13270824     0.74450
O1691       O  0.15363340  0.94058390  0.10861050    -0.39000
O1692       O  0.20847755  0.93392619  0.07896709    -0.38940
O1693       O  0.20385311  0.13141322  0.15205590    -0.39640
O1694       O  0.25882395  0.12237029  0.12332141    -0.39710
C1695       C  0.12721098  0.24358949  0.04695145    -0.11990
C1696       C  0.12246098  0.23459340  0.00794908     0.05010
C1697       C  0.11667034  0.19601903  0.99641821    -0.07280
C1698       C  0.11687279  0.16730989  0.02434194    -0.08020
C1699       C  0.12118232  0.17648600  0.06322068    -0.02580
C1700       C  0.12650302  0.21497227  0.07495515     0.04240
N1701       N  0.13196944  0.22540343  0.11466141     0.66750
H1702       H  0.13248435  0.27309574  0.05554649     0.15650
H1703       H  0.11217866  0.13765084  0.01592924     0.15360
N1704       N  0.10907227  0.18566355  0.95710403     0.74450
O1705       O  0.12098351  0.25791413  0.12663821    -0.39000
O1706       O  0.15072433  0.20382404  0.13706636    -0.38940
O1707       O  0.12080076  0.15382846  0.94406350    -0.39640
O1708       O  0.08670686  0.20588579  0.93681898    -0.39710
C1709       C  0.04521641  0.11635208  0.24554056    -0.11990
C1710       C  0.00601577  0.11590451  0.23554602     0.05010
C1711       C  0.99498083  0.11572370  0.19640899    -0.07280
C1712       C  0.02355120  0.11724339  0.16834459    -0.08020
C1713       C  0.06257348  0.11767769  0.17842766    -0.02580
C1714       C  0.07383246  0.11725841  0.21740977     0.04240
N1715       N  0.11372995  0.11888846  0.22892485     0.66750
H1716       H  0.05359602  0.11756005  0.27550713     0.15650
H1717       H  0.01536680  0.11664487  0.13829034     0.15360
N1718       N  0.95528901  0.11296919  0.18462704     0.74450
O1719       O  0.13744423  0.13968504  0.21087817    -0.39000
O1720       O  0.12455253  0.10257051  0.25948335    -0.38940
O1721       O  0.94372144  0.13083358  0.15522284    -0.39640
O1722       O  0.93266463  0.08985138  0.20118430    -0.39710
C1723       C  0.86232769  0.17315313  0.52686872    -0.11990
C1724       C  0.88503320  0.17648571  0.56009238     0.05010
C1725       C  0.90640570  0.21076924  0.56559380    -0.07280
C1726       C  0.90848160  0.23756641  0.53576251    -0.08020
C1727       C  0.88328173  0.23579529  0.50400240    -0.02580
C1728       C  0.85767914  0.20394130  0.50171748     0.04240
N1729       N  0.82409017  0.20399487  0.47758126     0.66750
H1730       H  0.84561544  0.14751474  0.52143373     0.15650
H1731       H  0.92857482  0.26093677  0.53925061     0.15360
N1732       N  0.92306067  0.22078715  0.60207337     0.74450
O1733       O  0.81269973  0.17332191  0.46179521    -0.39000
O1734       O  0.80261593  0.23329315  0.47672662    -0.38940
O1735       O  0.95492989  0.23831542  0.60349637    -0.39640
O1736       O  0.90306629  0.21798804  0.63228277    -0.39710
C1737       C  0.97981280  0.09861200  0.66568115    -0.11990
C1738       C  0.94220957  0.11095853  0.67319646     0.05010
C1739       C  0.93155104  0.12317489  0.71035356    -0.07280
C1740       C  0.95952799  0.12380719  0.73899042    -0.08020
C1741       C  0.99759265  0.11245565  0.73147976    -0.02580
C1742       C  0.00806953  0.09852723  0.69449642     0.04240
N1743       N  0.04572604  0.08267415  0.68569611     0.66750
H1744       H  0.98680799  0.08847107  0.63713707     0.15650
H1745       H  0.95177865  0.13421078  0.76734857     0.15360
N1746       N  0.89288105  0.13541127  0.71944240     0.74450
O1747       O  0.05047692  0.06280958  0.65566820    -0.39000
O1748       O  0.07429580  0.08752190  0.70757706    -0.38940
O1749       O  0.87397125  0.15610476  0.69634613    -0.39640
O1750       O  0.87883813  0.12847685  0.75219567    -0.39710
C1751       C  0.82970331  0.02483044  0.60995415    -0.11990
C1752       C  0.82030900  0.06292898  0.61908715     0.05010
C1753       C  0.78155994  0.07370096  0.62561397    -0.07280
C1754       C  0.75324391  0.04515307  0.62438232    -0.08020
C1755       C  0.76282943  0.00682049  0.61620600    -0.02580
C1756       C  0.80127992  0.99658346  0.60747085     0.04240
N1757       N  0.81166007  0.95841861  0.59485612     0.66750
H1758       H  0.85936466  0.01748561  0.60337834     0.15650
H1759       H  0.72359659  0.05258430  0.63103514     0.15360
N1760       N  0.77051863  0.11279701  0.63405820     0.74450
O1761       O  0.84568519  0.94620846  0.59938708    -0.39000
O1762       O  0.78854052  0.93876817  0.57484860    -0.38940
O1763       O  0.79326875  0.13523689  0.65136383    -0.39640
O1764       O  0.73688585  0.12440929  0.62623493    -0.39710
C1765       C  0.28099438  0.58127649  0.13015070    -0.11990
C1766       C  0.31942477  0.56914834  0.12803225     0.05010
C1767       C  0.32874491  0.52962359  0.12950699    -0.07280
C1768       C  0.29868285  0.50311025  0.13149813    -0.08020
C1769       C  0.26005322  0.51506889  0.13359961    -0.02580
C1770       C  0.25109075  0.55477168  0.13400889     0.04240
N1771       N  0.21237224  0.56868739  0.13961083     0.66750
H1772       H  0.27446112  0.61178455  0.13041020     0.15650
H1773       H  0.30550995  0.47271496  0.13027411     0.15360
N1774       N  0.36798206  0.51577058  0.12851570     0.74450
O1775       O  0.19041448  0.55279990  0.16380400    -0.39000
O1776       O  0.20158771  0.59956522  0.12380884    -0.38940
O1777       O  0.39420619  0.53471431  0.11195218    -0.39640
O1778       O  0.37615329  0.48320138  0.14240033    -0.39710
C1779       C  0.46730753  0.60955768  0.17499671    -0.11990
C1780       C  0.43406462  0.63086790  0.18328885     0.05010
C1781       C  0.42942959  0.64946080  0.21907330    -0.07280
C1782       C  0.45883008  0.64528602  0.24612498    -0.08020
C1783       C  0.49194838  0.62373131  0.23801947    -0.02580
C1784       C  0.49689129  0.60556840  0.20194235     0.04240
N1785       N  0.53056843  0.58276270  0.19219847     0.66750
H1786       H  0.46971687  0.59555449  0.14725501     0.15650
H1787       H  0.45628218  0.65920276  0.27389200     0.15360
N1788       N  0.39601392  0.67264541  0.22849674     0.74450
O1789       O  0.53232212  0.56554907  0.16027764    -0.39000
O1790       O  0.55853497  0.57904509  0.21509664    -0.38940
O1791       O  0.36761912  0.67534976  0.20597324    -0.39640
O1792       O  0.39498979  0.69125005  0.25965987    -0.39710
C1793       C  0.39906933  0.71223652  0.00627910    -0.11990
C1794       C  0.36964218  0.73962267  0.00906443     0.05010
C1795       C  0.34251170  0.73824748  0.03929464    -0.07280
C1796       C  0.34652702  0.70932803  0.06679492    -0.08020
C1797       C  0.37638020  0.68227575  0.06444594    -0.02580
C1798       C  0.40301756  0.68315438  0.03364518     0.04240
N1799       N  0.43343612  0.65507321  0.02902341     0.66750
H1800       H  0.41949408  0.71413009  0.98274978     0.15650
H1801       H  0.32617493  0.70767326  0.09040824     0.15360
N1802       N  0.31143641  0.76574403  0.04299029     0.74450
O1803       O  0.44992163  0.65112841  0.99688951    -0.39000
O1804       O  0.44549912  0.63547396  0.05702391    -0.38940
O1805       O  0.29843866  0.78341668  0.01410158    -0.39640
O1806       O  0.29465200  0.77022701  0.07489875    -0.39710
C1807       C  0.70254404  0.49841960  0.87084376    -0.11990
C1808       C  0.74092418  0.48577867  0.86849745     0.05010
C1809       C  0.74923268  0.44590936  0.86764057    -0.07280
C1810       C  0.71884808  0.41986678  0.87146046    -0.08020
C1811       C  0.68073268  0.43283179  0.87414272    -0.02580
C1812       C  0.67221899  0.47240203  0.87307515     0.04240
N1813       N  0.63327616  0.48661075  0.87509464     0.66750
H1814       H  0.69610366  0.52888647  0.87241900     0.15650
H1815       H  0.72470182  0.38922580  0.87093753     0.15360
N1816       N  0.78773583  0.43146804  0.86179474     0.74450
O1817       O  0.62434111  0.51779550  0.85875507    -0.39000
O1818       O  0.60804010  0.46899909  0.89442113    -0.38940
O1819       O  0.79789949  0.39993030  0.87667561    -0.39640
O1820       O  0.81022221  0.44784311  0.83841850    -0.39710
C1821       C  0.52571514  0.37698213  0.82846092    -0.11990
C1822       C  0.56458748  0.37331373  0.81816257     0.05010
C1823       C  0.57547409  0.37103164  0.77907700    -0.07280
C1824       C  0.54666763  0.37273690  0.75116518    -0.08020
C1825       C  0.50778346  0.37684348  0.76144138    -0.02580
C1826       C  0.49706140  0.37950080  0.80052350     0.04240
N1827       N  0.45779276  0.38631851  0.81224963     0.66750
H1828       H  0.51788048  0.37984513  0.85848333     0.15650
H1829       H  0.55449009  0.36993931  0.72114092     0.15360
N1830       N  0.61514368  0.36661296  0.76727705     0.74450
O1831       O  0.44538409  0.37240213  0.84339071    -0.39000
O1832       O  0.43685335  0.40975602  0.79400041    -0.38940
O1833       O  0.63888511  0.34835480  0.78787623    -0.39640
O1834       O  0.62601456  0.37874745  0.73484177    -0.39710
C1835       C  0.65061046  0.27045631  0.97190918    -0.11990
C1836       C  0.61940063  0.26837511  0.99724001     0.05010
C1837       C  0.58808570  0.29421731  0.99431259    -0.07280
C1838       C  0.58854250  0.32117907  0.96453666    -0.08020
C1839       C  0.61955695  0.32279026  0.93878945    -0.02580
C1840       C  0.65105280  0.29726262  0.94226938     0.04240
N1841       N  0.68283626  0.29732466  0.91551265     0.66750
H1842       H  0.67407731  0.24996051  0.97446192     0.15650
H1843       H  0.56501841  0.34154808  0.96166004     0.15360
N1844       N  0.55625473  0.29377655  0.02108974     0.74450
O1845       O  0.71582215  0.28609586  0.92609086    -0.39000
O1846       O  0.67746360  0.30514164  0.88050595    -0.38940
O1847       O  0.56069372  0.28150589  0.05492832    -0.39640
O1848       O  0.52442277  0.30904476  0.01215365    -0.39710
C1849       C  0.47007043  0.88155989  0.66725561    -0.11990
C1850       C  0.43100708  0.88257784  0.67731104     0.05010
C1851       C  0.41978276  0.88339392  0.71625138    -0.07280
C1852       C  0.44853649  0.88166865  0.74435092    -0.08020
C1853       C  0.48786788  0.88053877  0.73439913    -0.02580
C1854       C  0.49876446  0.88164061  0.69524357     0.04240
N1855       N  0.53841742  0.88444540  0.68334617     0.66750
H1856       H  0.47823742  0.88210447  0.63719004     0.15650
H1857       H  0.44006423  0.88027908  0.77427676     0.15360
N1858       N  0.37987851  0.88538294  0.72782756     0.74450
O1859       O  0.54965722  0.86754370  0.65322825    -0.39000
O1860       O  0.56097735  0.90760525  0.69994129    -0.38940
O1861       O  0.35362977  0.87072100  0.70740114    -0.39640
O1862       O  0.37089332  0.90018009  0.75975042    -0.39710
C1863       C  0.34156282  0.80615279  0.55049008    -0.11990
C1864       C  0.37777336  0.82047970  0.56141210     0.05010
C1865       C  0.41182215  0.80265010  0.54776503    -0.07280
C1866       C  0.40858654  0.77147366  0.52283577    -0.08020
C1867       C  0.37241392  0.75786735  0.51110360    -0.02580
C1868       C  0.33836394  0.77478875  0.52569207     0.04240
N1869       N  0.30064908  0.76015182  0.51637460     0.66750
H1870       H  0.31554760  0.81890747  0.56220305     0.15650
H1871       H  0.43463808  0.75887865  0.51099752     0.15360
N1872       N  0.44968680  0.81652569  0.55747164     0.74450
O1873       O  0.29488426  0.72437280  0.51399843    -0.39000
O1874       O  0.27218788  0.78274603  0.51416272    -0.38940
O1875       O  0.47743245  0.79323504  0.56106247    -0.39640
O1876       O  0.45643099  0.85214793  0.55867186    -0.39710
C1877       C  0.25784284  0.96355873  0.60166799    -0.11990
C1878       C  0.26798361  0.00255605  0.60366138     0.05010
C1879       C  0.30747722  0.01316695  0.60457991    -0.07280
C1880       C  0.33547626  0.98409872  0.60601200    -0.08020
C1881       C  0.32489718  0.94528057  0.60492586    -0.02580
C1882       C  0.28578284  0.93506545  0.60208313     0.04240
N1883       N  0.27376818  0.89579752  0.60360160     0.66750
H1884       H  0.22781975  0.95484097  0.60217959     0.15650
H1885       H  0.36567314  0.99161943  0.60769694     0.15360
N1886       N  0.31958200  0.05276995  0.60360144     0.74450
O1887       O  0.27277236  0.87874085  0.63553398    -0.39000
O1888       O  0.25864517  0.88027971  0.57449337    -0.38940
O1889       O  0.35075664  0.06281884  0.61946572    -0.39640
O1890       O  0.30131927  0.07705215  0.58368926    -0.39710
C1891       C  0.66000401  0.20671829  0.44178488    -0.11990
C1892       C  0.62606048  0.18688209  0.43287495     0.05010
C1893       C  0.59142513  0.19532783  0.45254976    -0.07280
C1894       C  0.59114661  0.22511352  0.47934456    -0.08020
C1895       C  0.62512503  0.24485679  0.48807775    -0.02580
C1896       C  0.65994129  0.23556836  0.46946687     0.04240
N1897       N  0.69536981  0.25478884  0.47860439     0.66750
H1898       H  0.68651384  0.20030050  0.42650339     0.15650
H1899       H  0.56488993  0.23155168  0.49503637     0.15360
N1900       N  0.55744966  0.17223110  0.44771602     0.74450
O1901       O  0.72606298  0.23558658  0.48172922    -0.39000
O1902       O  0.69649035  0.29089212  0.48236267    -0.38940
O1903       O  0.56032919  0.13605051  0.44756675    -0.39640
O1904       O  0.52440039  0.18733976  0.45025259    -0.39710
C1905       C  0.58432923  0.13874817  0.27254520    -0.11990
C1906       C  0.57291748  0.13648612  0.31102897     0.05010
C1907       C  0.53352588  0.13519496  0.32071292    -0.07280
C1908       C  0.50621975  0.13634294  0.29164182    -0.08020
C1909       C  0.51727583  0.13847801  0.25295121    -0.02580
C1910       C  0.55692966  0.14022454  0.24315080     0.04240
N1911       N  0.56985524  0.14414116  0.20406376     0.66750
H1912       H  0.61473984  0.14018845  0.26552214     0.15650
H1913       H  0.47606678  0.13334415  0.29935794     0.15360
N1914       N  0.52090506  0.12987477  0.35958124     0.74450
O1915       O  0.55255772  0.16643627  0.18120790    -0.39000
O1916       O  0.60076001  0.12814523  0.19330418    -0.38940
O1917       O  0.49180511  0.14788810  0.37200858    -0.39640
O1918       O  0.53519331  0.10313095  0.37951759    -0.39710
C1919       C  0.70219237  0.00597596  0.37121791    -0.11990
C1920       C  0.74137810  0.01587172  0.36936337     0.05010
C1921       C  0.75249176  0.05498441  0.36766335    -0.07280
C1922       C  0.72394410  0.08321578  0.36949037    -0.08020
C1923       C  0.68494060  0.07315007  0.37137680    -0.02580
C1924       C  0.67365029  0.03420867  0.37208037     0.04240
N1925       N  0.63375791  0.02288970  0.37446911     0.66750
H1926       H  0.69381888  0.97601082  0.37328129     0.15650
H1927       H  0.73200697  0.11330649  0.36798431     0.15360
N1928       N  0.79209353  0.06646676  0.36274703     0.74450
O1929       O  0.62271337  0.99183798  0.35919188    -0.39000
O1930       O  0.61006370  0.04216213  0.39422649    -0.38940
O1931       O  0.81398974  0.04808148  0.34028177    -0.39640
O1932       O  0.80401094  0.09755613  0.37727835    -0.39710
C1933       C  0.66641083  0.52903882  0.61677006    -0.11990
C1934       C  0.67781230  0.56709806  0.62285801     0.05010
C1935       C  0.71711507  0.57677012  0.62627366    -0.07280
C1936       C  0.74450243  0.54767485  0.62324399    -0.08020
C1937       C  0.73334905  0.50941270  0.61718560    -0.02580
C1938       C  0.69385362  0.49984614  0.61330914     0.04240
N1939       N  0.68129031  0.46127329  0.60490049     0.66750
H1940       H  0.63604556  0.52238598  0.61342507     0.15650
H1941       H  0.77470908  0.55467847  0.62729278     0.15360
N1942       N  0.72944545  0.61550843  0.63411765     0.74450
O1943       O  0.64903904  0.44948672  0.61699932    -0.39000
O1944       O  0.70036085  0.44027095  0.58217194    -0.38940
O1945       O  0.71004440  0.63673936  0.65633581    -0.39640
O1946       O  0.76172721  0.62728365  0.62208684    -0.39710
C1947       C  0.58479532  0.68781836  0.54461497    -0.11990
C1948       C  0.61980523  0.68228970  0.56396401     0.05010
C1949       C  0.65322138  0.70222900  0.55221063    -0.07280
C1950       C  0.65042513  0.72828014  0.52210340    -0.08020
C1951       C  0.61516594  0.73497999  0.50371032    -0.02580
C1952       C  0.58187335  0.71399654  0.51433089     0.04240
N1953       N  0.54583944  0.71700088  0.49388755     0.66750
H1954       H  0.55959956  0.67140396  0.55309256     0.15650
H1955       H  0.67577288  0.74456204  0.51376073     0.15360
N1956       N  0.68966637  0.69752956  0.57128556     0.74450
O1957       O  0.52508813  0.68749870  0.48937421    -0.39000
O1958       O  0.53237281  0.74928200  0.48423223    -0.38940
O1959       O  0.72071034  0.69859760  0.55230846    -0.39640
O1960       O  0.69121330  0.69683504  0.60745237    -0.39710
C1961       C  0.50654157  0.60707415  0.71191226    -0.11990
C1962       C  0.51429467  0.62811151  0.74522502     0.05010
C1963       C  0.54830953  0.64999604  0.74858717    -0.07280
C1964       C  0.57387200  0.65063259  0.71759305    -0.08020
C1965       C  0.56628080  0.62928551  0.68434662    -0.02580
C1966       C  0.53226589  0.60703270  0.68105213     0.04240
N1967       N  0.52326443  0.58441028  0.64730477     0.66750
H1968       H  0.47985246  0.59093107  0.71003137     0.15650
H1969       H  0.60028509  0.66714096  0.71957298     0.15360
N1970       N  0.55698550  0.67186051  0.78263649     0.74450
O1971       O  0.49591013  0.56043995  0.64816839    -0.39000
O1972       O  0.54115090  0.58906958  0.61606974    -0.38940
O1973       O  0.55081680  0.65795628  0.81555328    -0.39640
O1974       O  0.57434506  0.70365300  0.77998317    -0.39710
C1975       C  0.29104939  0.49561914  0.36925096    -0.11990
C1976       C  0.25234941  0.48511538  0.36455918     0.05010
C1977       C  0.24198113  0.44585257  0.36173235    -0.07280
C1978       C  0.27093234  0.41801723  0.36492901    -0.08020
C1979       C  0.30955087  0.42873856  0.36976760    -0.02580
C1980       C  0.31981007  0.46788970  0.37213761     0.04240
N1981       N  0.35892752  0.47988366  0.37873562     0.66750
H1982       H  0.29873731  0.52566746  0.37255090     0.15650
H1983       H  0.26359388  0.38783077  0.36239111     0.15360
N1984       N  0.20280696  0.43390467  0.35472903     0.74450
O1985       O  0.37142975  0.51038944  0.36351192    -0.39000
O1986       O  0.38000328  0.46194241  0.40227386    -0.38940
O1987       O  0.18098066  0.45360935  0.33337852    -0.39640
O1988       O  0.19111246  0.40165193  0.36665228    -0.39710
C1989       C  0.36757252  0.29549951  0.49583265    -0.11990
C1990       C  0.36837353  0.25646180  0.48556856     0.05010
C1991       C  0.36911089  0.24590258  0.44627513    -0.07280
C1992       C  0.37008894  0.27478610  0.41845007    -0.08020
C1993       C  0.36903789  0.31364101  0.42889229    -0.02580
C1994       C  0.36780489  0.32432656  0.46800292     0.04240
N1995       N  0.36797249  0.36398559  0.47998219     0.66750
H1996       H  0.36815272  0.30368754  0.52586722     0.15650
H1997       H  0.37025350  0.26693984  0.38830477     0.15360
N1998       N  0.36759349  0.20640221  0.43404655     0.74450
O1999       O  0.35096498  0.37390428  0.51051802    -0.39000
O2000       O  0.38784709  0.38858264  0.46211111    -0.38940
O2001       O  0.34461463  0.18313987  0.44990504    -0.39640
O2002       O  0.38617477  0.19567808  0.40471568    -0.39710
C2003       C  0.45145788  0.37612597  0.24920596    -0.11990
C2004       C  0.48964384  0.37981606  0.26205441     0.05010
C2005       C  0.49751880  0.38200065  0.30184543    -0.07280
C2006       C  0.46696464  0.37824688  0.32775789    -0.08020
C2007       C  0.42891766  0.37421363  0.31479380    -0.02580
C2008       C  0.42072199  0.37375098  0.27500539     0.04240
N2009       N  0.38192761  0.37036960  0.26022955     0.66750
H2010       H  0.44564406  0.37385981  0.21870609     0.15650
H2011       H  0.47261751  0.38001218  0.35833864     0.15360
N2012       N  0.53575642  0.38933679  0.31629537     0.74450
O2013       O  0.37390961  0.38283385  0.22710925    -0.39000
O2014       O  0.35605965  0.35297467  0.27891774    -0.38940
O2015       O  0.55788843  0.41245190  0.29907285    -0.39640
O2016       O  0.54587833  0.37626874  0.34859785    -0.39710
loop_ 
_geom_bond_atom_site_label_1 
_geom_bond_atom_site_label_2 
_geom_bond_distance 
_geom_bond_site_symmetry_2 
_ccdc_geom_bond_type 
O1           Mg3   2.171       .  S
O1           Mg9   2.178       .  S
O1           C36   1.235       .  S
C2           O15   1.233       .  S
C2           O39   1.270       .  A
C2           H41   1.080       .  S
Mg3          O32   2.164       .  S
Mg3          O47   2.296       .  S
Mg3          O43   2.291       .  S
Mg3          O14   2.315       .  S
O4          Mg46   2.162       .  S
O4          Mg29   2.176       .  S
O4           C25   1.234       .  S
O5           C36   1.271       .  A
O5          Mg29   2.310       .  S
C6            O8   1.273       .  A
C6           O20   1.273       .  A
C6         C1021   1.477       .  S
O7           C35   1.268       .  A
O7           Mg9   2.302       .  S
O8          Mg40   2.304       .  S
Mg9          O15   2.171       .  S
Mg9          O23   2.290       .  S
Mg9          O11   2.281       .  S
C10          O48   1.273       .  A
C10          O16   1.274       .  A
C10         C461   1.478       .  S
O11          C18   1.271       .  A
H12          C25   1.079       .  S
C13          O27   1.235       .  S
C13          O28   1.271       .  A
C13          H38   1.081       .  S
O14          C37   1.271       .  A
O15         Mg29   2.159       .  S
O16         Mg46   2.299       .  S
C17          O30   1.274       .  A
C17          O22   1.272       .  A
C17         C297   1.478       .  S
C18          O45   1.271       .  A
C18         C624   1.471       .  S
Mg19         O26   2.186       .  S
Mg19         O27   2.169       .  S
Mg19         O20   2.294       .  S
Mg19         O21   2.307       .  S
Mg19         O48   2.302       .  S
O21          C25   1.270       .  A
O22         Mg29   2.288       .  S
O23          C42   1.272       .  A
O24          C44   1.276       .  A
O24         Mg40   2.307       .  S
O26         Mg40   2.162       .  S
O26          C37   1.234       .  S
O27         Mg46   2.183       .  S
O28         Mg40   2.316       .  S
Mg29         O45   2.292       .  S
O30         Mg46   2.310       .  S
H31          C36   1.081       .  S
O32         Mg40   2.171       .  S
O32          C35   1.231       .  S
H33          C35   1.078       .  S
H34          C37   1.081       .  S
O39         Mg46   2.312       .  S
C42          O47   1.273       .  A
C42        C1252   1.474       .  S
O43          C44   1.271       .  A
C44        C1288   1.477       .  S
O49         Mg51   2.172       .  S
O49         Mg57   2.189       .  S
O49          C84   1.233       .  S
C50          O63   1.233       .  S
C50          O87   1.268       .  A
C50          H89   1.081       .  S
Mg51         O80   2.184       .  S
Mg51         O95   2.317       .  S
Mg51         O91   2.289       .  S
Mg51         O62   2.300       .  S
O52         Mg94   2.170       .  S
O52         Mg77   2.165       .  S
O52          C73   1.229       .  S
O53          C84   1.267       .  A
O53         Mg77   2.295       .  S
C54          O56   1.276       .  A
C54          O68   1.273       .  A
C54        C1279   1.481       .  S
O55          C83   1.267       .  A
O55         Mg57   2.296       .  S
O56         Mg88   2.270       .  S
Mg57         O63   2.171       .  S
Mg57         O71   2.273       .  S
Mg57         O59   2.315       .  S
C58          O96   1.276       .  A
C58          O64   1.275       .  A
C58        C1086   1.482       .  S
O59          C66   1.274       .  A
H60          C73   1.077       .  S
C61          O75   1.231       .  S
C61          O76   1.267       .  A
C61          H86   1.077       .  S
O62          C85   1.268       .  A
O63         Mg77   2.183       .  S
O64         Mg94   2.317       .  S
C65          O78   1.277       .  A
C65          O70   1.274       .  A
C65         C486   1.481       .  S
C66          O93   1.276       .  A
C66         C306   1.484       .  S
Mg67         O74   2.174       .  S
Mg67         O75   2.177       .  S
Mg67         O68   2.307       .  S
Mg67         O69   2.292       .  S
Mg67         O96   2.268       .  S
O69          C73   1.266       .  A
O70         Mg77   2.307       .  S
O71          C90   1.275       .  A
O72          C92   1.274       .  A
O72         Mg88   2.310       .  S
O74         Mg88   2.182       .  S
O74          C85   1.230       .  S
O75         Mg94   2.170       .  S
O76         Mg88   2.294       .  S
Mg77         O93   2.275       .  S
O78         Mg94   2.281       .  S
H79          C84   1.082       .  S
O80         Mg88   2.171       .  S
O80          C83   1.232       .  S
H81          C83   1.079       .  S
H82          C85   1.080       .  S
O87         Mg94   2.295       .  S
C90          O95   1.276       .  A
C90        C1143   1.482       .  S
O91          C92   1.277       .  A
C92        C1236   1.483       .  S
O97         Mg99   2.161       .  S
O97        Mg105   2.180       .  S
O97         C132   1.231       .  S
C98         O111   1.232       .  S
C98         O135   1.267       .  A
C98         H137   1.079       .  S
Mg99        O128   2.175       .  S
Mg99        O143   2.332       .  S
Mg99        O139   2.281       .  S
Mg99        O110   2.302       .  S
O100       Mg142   2.178       .  S
O100       Mg125   2.171       .  S
O100        C121   1.230       .  S
O101        C132   1.267       .  A
O101       Mg125   2.287       .  S
C102        O104   1.276       .  A
C102        O116   1.276       .  A
C102        C967   1.483       .  S
O103        C131   1.268       .  A
O103       Mg105   2.293       .  S
O104       Mg136   2.283       .  S
Mg105       O111   2.167       .  S
Mg105       O119   2.273       .  S
Mg105       O107   2.307       .  S
C106        O144   1.278       .  A
C106        O112   1.275       .  A
C106        C606   1.483       .  S
O107        C114   1.274       .  A
H108        C121   1.078       .  S
C109        O123   1.233       .  S
C109        O124   1.269       .  A
C109        H134   1.080       .  S
O110        C133   1.269       .  A
O111       Mg125   2.180       .  S
O112       Mg142   2.317       .  S
C113        O126   1.278       .  A
C113        O118   1.272       .  A
C113        C883   1.478       .  S
C114        O141   1.276       .  A
C114       C1003   1.482       .  S
Mg115       O122   2.182       .  S
Mg115       O123   2.187       .  S
Mg115       O116   2.322       .  S
Mg115       O117   2.298       .  S
Mg115       O144   2.290       .  S
O117        C121   1.267       .  A
O118       Mg125   2.292       .  S
O119        C138   1.276       .  A
O120        C140   1.277       .  A
O120       Mg136   2.331       .  S
O122       Mg136   2.186       .  S
O122        C133   1.233       .  S
O123       Mg142   2.185       .  S
O124       Mg136   2.304       .  S
Mg125       O141   2.285       .  S
O126       Mg142   2.296       .  S
H127        C132   1.081       .  S
O128       Mg136   2.168       .  S
O128        C131   1.231       .  S
H129        C131   1.080       .  S
H130        C133   1.080       .  S
O135       Mg142   2.295       .  S
C138        O143   1.277       .  A
C138        C719   1.487       .  S
O139        C140   1.276       .  A
C140        C511   1.487       .  S
C145        C322   1.477       .  S
C145        C146   1.392       .  A
C145        C150   1.416       .  A
C146        H151   1.085       .  S
C146        C147   1.400       .  A
C147       C2004   1.470       .  S
C147        C148   1.401       .  A
C148        H152   1.084       .  S
C148        C149   1.394       .  A
C149        C834   1.478       .  S
C149        C150   1.417       .  A
C150        H153   1.083       .  S
C154        C812   1.478       .  S
C154        C155   1.393       .  A
C154        C159   1.416       .  A
C155        H160   1.084       .  S
C155        C156   1.402       .  A
C156       C1990   1.473       .  S
C156        C157   1.401       .  A
C157        H161   1.084       .  S
C157        C158   1.393       .  A
C158        C238   1.477       .  S
C158        C159   1.416       .  A
C159        H162   1.083       .  S
C163       C2007   1.461       .  S
C163        C164   1.396       .  A
C163        C168   1.394       .  A
C164        H169   1.084       .  S
C164        C165   1.397       .  A
C165       C1993   1.462       .  S
C165        C166   1.398       .  A
C166        H170   1.084       .  S
C166        C167   1.395       .  A
C167       C1979   1.460       .  S
C167        C168   1.395       .  A
C168        H171   1.085       .  S
C172        C190   1.475       .  S
C172        C173   1.417       .  A
C172        C177   1.392       .  A
C173        H178   1.083       .  S
C173        C174   1.417       .  A
C174        C944   1.475       .  S
C174        C175   1.392       .  A
C175        H179   1.085       .  S
C175        C176   1.398       .  A
C176       C1976   1.464       .  S
C176        C177   1.396       .  A
C177        H180   1.085       .  S
O181       Mg183   2.180       .  S
O181       Mg189   2.176       .  S
O181        C216   1.234       .  S
C182        O195   1.235       .  S
C182        O219   1.271       .  A
C182        H221   1.081       .  S
Mg183       O212   2.161       .  S
Mg183       O227   2.306       .  S
Mg183       O223   2.317       .  S
Mg183       O194   2.315   1_655  S
O184       Mg226   2.156       .  S
O184       Mg209   2.171       .  S
O184        C205   1.235       .  S
O185        C216   1.270       .  A
O185       Mg209   2.311   1_655  S
C186        O188   1.270       .  A
C186        O200   1.273       .  A
C186       C1048   1.475       .  S
O187        C215   1.269       .  A
O187       Mg189   2.305       .  S
O188       Mg220   2.289   1_455  S
Mg189       O195   2.182       .  S
Mg189       O203   2.288       .  S
Mg189       O191   2.298       .  S
C190        O228   1.271       .  A
C190        O196   1.273       .  A
O191        C198   1.272       .  A
H192        C205   1.081       .  S
C193        O207   1.233       .  S
C193        O208   1.270       .  A
C193        H218   1.081       .  S
O194        C217   1.271       .  A
O195       Mg209   2.165   1_655  S
O196       Mg226   2.288       .  S
C197        O210   1.271       .  A
C197        O202   1.275       .  A
C197       C1243   1.479       .  S
C198        O225   1.272       .  A
C198        C726   1.475       .  S
Mg199       O206   2.177       .  S
Mg199       O207   2.156       .  S
Mg199       O200   2.297       .  S
Mg199       O201   2.316       .  S
Mg199       O228   2.299       .  S
O201        C205   1.271       .  A
O202       Mg209   2.307       .  S
O203        C222   1.272       .  A
O204        C224   1.272       .  A
O204       Mg220   2.282       .  S
O206       Mg220   2.158   1_455  S
O206        C217   1.234       .  S
O207       Mg226   2.171       .  S
O208       Mg220   2.304   1_455  S
Mg209       O225   2.289   1_455  S
O210       Mg226   2.297       .  S
H211        C216   1.081       .  S
O212       Mg220   2.174       .  S
O212        C215   1.234       .  S
H213        C215   1.081       .  S
H214        C217   1.079       .  S
O219       Mg226   2.315   1_655  S
C222        O227   1.275       .  A
C222        C304   1.475       .  S
O223        C224   1.274       .  A
C224        C885   1.479       .  S
O229       Mg231   2.173       .  S
O229       Mg237   2.155       .  S
O229        C264   1.232       .  S
C230        O243   1.236       .  S
C230        O267   1.272       .  A
C230        H269   1.081       .  S
Mg231       O260   2.169       .  S
Mg231       O275   2.294       .  S
Mg231       O271   2.291       .  S
Mg231       O242   2.304   1_565  S
O232       Mg274   2.151       .  S
O232       Mg257   2.182   1_545  S
O232        C253   1.232       .  S
O233        C264   1.271       .  A
O233       Mg257   2.314       .  S
C234        O236   1.272       .  A
C234        O248   1.275       .  A
C234       C1084   1.474       .  S
O235        C263   1.269       .  A
O235       Mg237   2.302       .  S
O236       Mg268   2.283   1_545  S
Mg237       O243   2.171       .  S
Mg237       O251   2.281       .  S
Mg237       O239   2.295       .  S
C238        O276   1.273       .  A
C238        O244   1.275       .  A
O239        C246   1.273       .  A
H240        C253   1.079       .  S
C241        O255   1.233       .  S
C241        O256   1.269       .  A
C241        H266   1.078       .  S
O242        C265   1.269       .  A
O243       Mg257   2.154       .  S
O244       Mg274   2.300       .  S
C245        O258   1.273       .  A
C245        O250   1.274       .  A
C245       C1043   1.481       .  S
C246        O273   1.273       .  A
C246        C978   1.481       .  S
Mg247       O254   2.176       .  S
Mg247       O255   2.171       .  S
Mg247       O248   2.304       .  S
Mg247       O249   2.313       .  S
Mg247       O276   2.301       .  S
O249        C253   1.270       .  A
O250       Mg257   2.292   1_545  S
O251        C270   1.271       .  A
O252        C272   1.273       .  A
O252       Mg268   2.291       .  S
O254       Mg268   2.179   1_545  S
O254        C265   1.233       .  S
O255       Mg274   2.185       .  S
O256       Mg268   2.306   1_545  S
Mg257       O273   2.313       .  S
O258       Mg274   2.315       .  S
H259        C264   1.078       .  S
O260       Mg268   2.167       .  S
O260        C263   1.233       .  S
H261        C263   1.081       .  S
H262        C265   1.081       .  S
O267       Mg274   2.319   1_565  S
C270        O275   1.272       .  A
C270        C295   1.472       .  S
O271        C272   1.272       .  A
C272        C715   1.473       .  S
C277       C1965   1.451       .  S
C277        C278   1.395       .  A
C277        C282   1.393       .  A
C278        H283   1.084       .  S
C278        C279   1.398       .  A
C279       C1948   1.461       .  S
C279        C280   1.395       .  A
C280        H284   1.084       .  S
C280        C281   1.393       .  A
C281       C1934   1.452       .  S
C281        C282   1.392       .  A
C282        H285   1.085       .  S
C286       C1313   1.476       .  S
C286        C287   1.391       .  A
C286        C291   1.419       .  A
C287        H292   1.085       .  S
C287        C288   1.395       .  A
C288       C1962   1.452       .  S
C288        C289   1.394       .  A
C289        H293   1.085       .  S
C289        C290   1.393       .  A
C290        C354   1.476       .  S
C290        C291   1.419       .  A
C291        H294   1.083       .  S
C295        C296   1.418       .  A
C295        C300   1.390       .  A
C296        H301   1.083       .  S
C296        C297   1.417       .  A
C297        C298   1.394       .  A
C298        H302   1.085       .  S
C298        C299   1.397       .  A
C299       C1951   1.457       .  S
C299        C300   1.394       .  A
C300        H303   1.085       .  S
C304        C305   1.419       .  A
C304        C309   1.390       .  A
C305        H310   1.083       .  S
C305        C306   1.420       .  A
C306        C307   1.394       .  A
C307        H311   1.085       .  S
C307        C308   1.396       .  A
C308       C1937   1.463       .  S
C308        C309   1.396       .  A
C309        H312   1.085       .  S
O313       Mg315   2.179       .  S
O313       Mg321   2.182       .  S
O313        C348   1.234       .  S
C314        O327   1.235       .  S
C314        O351   1.272       .  A
C314        H353   1.081       .  S
Mg315       O344   2.137       .  S
Mg315       O359   2.296       .  S
Mg315       O355   2.307       .  S
Mg315       O326   2.311   1_556  S
O316       Mg358   2.155       .  S
O316       Mg341   2.176       .  S
O316        C337   1.230       .  S
O317        C348   1.270       .  A
O317       Mg341   2.307   1_556  S
C318        O320   1.272       .  A
C318        O332   1.274       .  A
C318       C1254   1.476       .  S
O319        C347   1.269       .  A
O319       Mg321   2.314       .  S
O320       Mg352   2.298   1_554  S
Mg321       O327   2.190       .  S
Mg321       O335   2.305       .  S
Mg321       O323   2.301       .  S
C322        O360   1.272       .  A
C322        O328   1.275       .  A
O323        C330   1.274       .  A
H324        C337   1.076       .  S
C325        O339   1.235       .  S
C325        O340   1.271       .  A
C325        H350   1.081       .  S
O326        C349   1.270       .  A
O327       Mg341   2.177   1_556  S
O328       Mg358   2.310       .  S
C329        O342   1.273       .  A
C329        O334   1.274       .  A
C329       C1075   1.478       .  S
C330        O357   1.273       .  A
C330        C894   1.478       .  S
Mg331       O338   2.170       .  S
Mg331       O339   2.175       .  S
Mg331       O332   2.294       .  S
Mg331       O333   2.309       .  S
Mg331       O360   2.291       .  S
O333        C337   1.270       .  A
O334       Mg341   2.301       .  S
O335        C354   1.274       .  A
O336        C356   1.273       .  A
O336       Mg352   2.291       .  S
O338       Mg352   2.154   1_554  S
O338        C349   1.234       .  S
O339       Mg358   2.173       .  S
O340       Mg352   2.311   1_554  S
Mg341       O357   2.300   1_554  S
O342       Mg358   2.299       .  S
H343        C348   1.081       .  S
O344       Mg352   2.176       .  S
O344        C347   1.227       .  S
H345        C347   1.074       .  S
H346        C349   1.081       .  S
O351       Mg358   2.317   1_556  S
C354        O359   1.274       .  A
O355        C356   1.273       .  A
C356        C969   1.479       .  S
O361       Mg363   2.178       .  S
O361       Mg369   2.174       .  S
O361        C396   1.235       .  S
C362        O375   1.233       .  S
C362        O399   1.269       .  A
C362        H401   1.081       .  S
Mg363       O392   2.179       .  S
Mg363       O407   2.310       .  S
Mg363       O403   2.297       .  S
Mg363       O374   2.307       .  S
O364       Mg406   2.166       .  S
O364       Mg389   2.171       .  S
O364        C385   1.231       .  S
O365        C396   1.271       .  A
O365       Mg389   2.312       .  S
C366        O368   1.274       .  A
C366        O380   1.272       .  A
C366        C524   1.476       .  S
O367        C395   1.270       .  A
O367       Mg369   2.309       .  S
O368       Mg400   2.306       .  S
Mg369       O375   2.181       .  S
Mg369       O383   2.305       .  S
Mg369       O371   2.295       .  S
C370        O408   1.273       .  A
C370        O376   1.273       .  A
C370       C1170   1.477       .  S
O371        C378   1.274       .  A
H372        C385   1.079       .  S
C373        O387   1.234       .  S
C373        O388   1.271       .  A
C373        H398   1.078       .  S
O374        C397   1.269       .  A
O375       Mg389   2.167       .  S
O376       Mg406   2.301       .  S
C377        O390   1.274       .  A
C377        O382   1.274       .  A
C377        C595   1.480       .  S
C378        O405   1.272       .  A
C378        C484   1.473       .  S
Mg379       O386   2.179       .  S
Mg379       O387   2.172       .  S
Mg379       O380   2.286       .  S
Mg379       O381   2.302       .  S
Mg379       O408   2.294       .  S
O381        C385   1.268       .  A
O382       Mg389   2.300       .  S
O383        C402   1.274       .  A
O384        C404   1.275       .  A
O384       Mg400   2.304       .  S
O386       Mg400   2.160       .  S
O386        C397   1.231       .  S
O387       Mg406   2.180       .  S
O388       Mg400   2.312       .  S
Mg389       O405   2.292       .  S
O390       Mg406   2.308       .  S
H391        C396   1.081       .  S
O392       Mg400   2.184       .  S
O392        C395   1.234       .  S
H393        C395   1.081       .  S
H394        C397   1.076       .  S
O399       Mg406   2.311       .  S
C402        O407   1.275       .  A
C402       C1012   1.482       .  S
O403        C404   1.273       .  A
C404        C622   1.476       .  S
O409       Mg411   2.171       .  S
O409       Mg417   2.184   1_554  S
O409        C444   1.233       .  S
C410        O423   1.234       .  S
C410        O447   1.269   1_455  A
C410        H449   1.081       .  S
Mg411       O440   2.187   1_455  S
Mg411       O455   2.315       .  S
Mg411       O451   2.284       .  S
Mg411       O422   2.296   1_565  S
O412       Mg454   2.184   1_455  S
O412       Mg437   2.172       .  S
O412        C433   1.233       .  S
O413        C444   1.268   1_545  A
O413       Mg437   2.295   1_554  S
C414        O416   1.277   1_545  A
C414        O428   1.276       .  A
C414        C949   1.487       .  S
O415        C443   1.267   1_556  A
O415       Mg417   2.296   1_655  S
O416       Mg448   2.286       .  S
Mg417       O423   2.181       .  S
Mg417       O431   2.294       .  S
Mg417       O419   2.319       .  S
C418        O456   1.277   1_556  A
C418        O424   1.276       .  A
C418       C1234   1.486       .  S
O419        C426   1.275       .  A
H420        C433   1.081       .  S
C421        O435   1.233       .  S
C421        O436   1.268   1_545  A
C421        H446   1.080       .  S
O422        C445   1.268   1_455  A
O423       Mg437   2.187   1_565  S
O424       Mg454   2.324       .  S
C425        O438   1.276   1_455  A
C425        O430   1.275       .  A
C425        C706   1.481       .  S
C426        O453   1.276   1_565  A
C426       C1057   1.483       .  S
Mg427       O434   2.172       .  S
Mg427       O435   2.181   1_554  S
Mg427       O428   2.326       .  S
Mg427       O429   2.297   1_655  S
Mg427       O456   2.282       .  S
O429        C433   1.268   1_554  A
O430       Mg437   2.317       .  S
O431        C450   1.277   1_556  A
O432        C452   1.276       .  A
O432       Mg448   2.316       .  S
O434       Mg448   2.184   1_545  S
O434        C445   1.234       .  S
O435       Mg454   2.172       .  S
O436       Mg448   2.297   1_556  S
Mg437       O453   2.280       .  S
O438       Mg454   2.286       .  S
H439        C444   1.080       .  S
O440       Mg448   2.172       .  S
O440        C443   1.233       .  S
H441        C443   1.081       .  S
H442        C445   1.081       .  S
O447       Mg454   2.301   1_565  S
C450        O455   1.275       .  A
C450        C869   1.483       .  S
O451        C452   1.276   1_455  A
C452       C1023   1.483       .  S
C457       C1102   1.479       .  S
C457        C458   1.392       .  A
C457        C462   1.419       .  A
C458        H463   1.085   1_565  S
C458        C459   1.399       .  A
C459       C1920   1.466   1_565  S
C459        C460   1.399       .  A
C460        H464   1.085       .  S
C460        C461   1.391       .  A
C461        C462   1.419       .  A
C462        H465   1.083       .  S
C466       C1892   1.461       .  S
C466        C467   1.395       .  A
C466        C471   1.396       .  A
C467        H472   1.085       .  S
C467        C468   1.394       .  A
C468       C1923   1.455       .  S
C468        C469   1.395       .  A
C469        H473   1.084       .  S
C469        C470   1.394       .  A
C470       C1906   1.459       .  S
C470        C471   1.396       .  A
C471        H474   1.084       .  S
C475        C534   1.484       .  S
C475        C476   1.396       .  A
C475        C480   1.420       .  A
C476        H481   1.084       .  S
C476        C477   1.396       .  A
C477       C1909   1.469       .  S
C477        C478   1.397       .  A
C478        H482   1.085       .  S
C478        C479   1.390       .  A
C479       C1193   1.480       .  S
C479        C480   1.419       .  A
C480        H483   1.083       .  S
C484        C485   1.420       .  A
C484        C489   1.390       .  A
C485        H490   1.083       .  S
C485        C486   1.421       .  A
C486        C487   1.393       .  A
C487        H491   1.085       .  S
C487        C488   1.394       .  A
C488       C1895   1.452       .  S
C488        C489   1.391       .  A
C489        H492   1.085       .  S
C493        C810   1.480       .  S
C493        C494   1.396       .  A
C493        C498   1.417       .  A
C494        H499   1.084       .  S
C494        C495   1.401       .  A
C495       C1878   1.473       .  S
C495        C496   1.400       .  A
C496        H500   1.085       .  S
C496        C497   1.391       .  A
C497       C1134   1.476       .  S
C497        C498   1.417       .  A
C498        H501   1.083       .  S
C502       C1864   1.468       .  S
C502        C503   1.397       .  A
C502        C507   1.395       .  A
C503        H508   1.084       .  S
C503        C504   1.398       .  A
C504       C1881   1.465       .  S
C504        C505   1.398       .  A
C505        H509   1.084       .  S
C505        C506   1.397       .  A
C506       C1850   1.458       .  S
C506        C507   1.394       .  A
C507        H510   1.084       .  S
C511        C512   1.397       .  A
C511        C516   1.420       .  A
C512        H517   1.084       .  S
C512        C513   1.401       .  A
C513       C1853   1.475       .  S
C513        C514   1.398       .  A
C514        H518   1.084       .  S
C514        C515   1.393       .  A
C515        C546   1.483       .  S
C515        C516   1.420       .  A
C516        H519   1.083       .  S
C520        C906   1.475       .  S
C520        C521   1.392       .  A
C520        C525   1.418       .  A
C521        H526   1.085       .  S
C521        C522   1.399       .  A
C522       C1867   1.466       .  S
C522        C523   1.398       .  A
C523        H527   1.085       .  S
C523        C524   1.392       .  A
C524        C525   1.417       .  A
C525        H528   1.083       .  S
O529       Mg531   2.177       .  S
O529       Mg537   2.187   1_545  S
O529        C564   1.234       .  S
C530        O543   1.231       .  S
C530        O567   1.267   1_556  A
C530        H569   1.080       .  S
Mg531       O560   2.182   1_556  S
Mg531       O575   2.317       .  S
Mg531       O571   2.301       .  S
Mg531       O542   2.302       .  S
O532       Mg574   2.175   1_556  S
O532       Mg557   2.174       .  S
O532        C553   1.231       .  S
O533        C564   1.268       .  A
O533       Mg557   2.298   1_545  S
C534        O536   1.275       .  A
C534        O548   1.274       .  A
O535        C563   1.267   1_566  A
O535       Mg537   2.295       .  S
O536       Mg568   2.268       .  S
Mg537       O543   2.175       .  S
Mg537       O551   2.291   1_565  S
Mg537       O539   2.319       .  S
C538        O576   1.277   1_565  A
C538        O544   1.274       .  A
C538        C760   1.479       .  S
O539        C546   1.276       .  A
H540        C553   1.078       .  S
C541        O555   1.230       .  S
C541        O556   1.266       .  A
C541        H566   1.077       .  S
O542        C565   1.269   1_556  A
O543       Mg557   2.179       .  S
O544       Mg574   2.306       .  S
C545        O558   1.276   1_556  A
C545        O550   1.276       .  A
C545        C615   1.486       .  S
C546        O573   1.277       .  A
Mg547       O554   2.181       .  S
Mg547       O555   2.182   1_545  S
Mg547       O548   2.318       .  S
Mg547       O549   2.297   1_554  S
Mg547       O576   2.283       .  S
O549        C553   1.267   1_545  A
O550       Mg557   2.324       .  S
O551        C570   1.278       .  A
O552        C572   1.273       .  A
O552       Mg568   2.300       .  S
O554       Mg568   2.191       .  S
O554        C565   1.234       .  S
O555       Mg574   2.167       .  S
O556       Mg568   2.289   1_565  S
Mg557       O573   2.284       .  S
O558       Mg574   2.277       .  S
H559        C564   1.080       .  S
O560       Mg568   2.167       .  S
O560        C563   1.232       .  S
H561        C563   1.081       .  S
H562        C565   1.081       .  S
O567       Mg574   2.294       .  S
C570        O575   1.276       .  A
C570       C1281   1.483       .  S
O571        C572   1.277   1_556  A
C572        C579   1.483       .  S
C577        C833   1.478       .  S
C577        C578   1.420       .  A
C577        C582   1.391       .  A
C578        H583   1.083       .  S
C578        C579   1.423       .  A
C579        C580   1.394       .  A
C580        H584   1.085   1_554  S
C580        C581   1.395       .  A
C581       C1836   1.451   1_554  S
C581        C582   1.392       .  A
C582        H585   1.085       .  S
C586       C1822   1.459       .  S
C586        C587   1.396       .  A
C586        C591   1.394       .  A
C587        H592   1.085       .  S
C587        C588   1.395       .  A
C588       C1839   1.453       .  S
C588        C589   1.394       .  A
C589        H593   1.085       .  S
C589        C590   1.391       .  A
C590       C1811   1.453       .  S
C590        C591   1.393       .  A
C591        H594   1.085       .  S
C595        C596   1.392       .  A
C595        C600   1.421       .  A
C596        H601   1.085       .  S
C596        C597   1.398       .  A
C597       C1825   1.463       .  S
C597        C598   1.397       .  A
C598        H602   1.085       .  S
C598        C599   1.391       .  A
C599        C774   1.479       .  S
C599        C600   1.420       .  A
C600        H603   1.083       .  S
C604        C658   1.484       .  S
C604        C605   1.422       .  A
C604        C609   1.394       .  A
C605        H610   1.083       .  S
C605        C606   1.421       .  A
C606        C607   1.391       .  A
C607        H611   1.085       .  S
C607        C608   1.397       .  A
C608       C1808   1.468       .  S
C608        C609   1.396       .  A
C609        H612   1.084       .  S
C613       C1306   1.475       .  S
C613        C614   1.420       .  A
C613        C618   1.391       .  A
C614        H619   1.083       .  S
C614        C615   1.421       .  A
C615        C616   1.397       .  A
C616        H620   1.085   1_556  S
C616        C617   1.394       .  A
C617       C1794   1.452   1_556  S
C617        C618   1.392       .  A
C618        H621   1.085       .  S
C622        C623   1.419       .  A
C622        C627   1.394       .  A
C623        H628   1.083       .  S
C623        C624   1.418       .  A
C624        C625   1.389       .  A
C625        H629   1.085       .  S
C625        C626   1.391       .  A
C626       C1783   1.450       .  S
C626        C627   1.396       .  A
C627        H630   1.085       .  S
C631       C1797   1.454       .  S
C631        C632   1.395       .  A
C631        C636   1.395       .  A
C632        H637   1.084       .  S
C632        C633   1.393       .  A
C633       C1780   1.448       .  S
C633        C634   1.391       .  A
C634        H638   1.085       .  S
C634        C635   1.393       .  A
C635       C1766   1.456       .  S
C635        C636   1.396       .  A
C636        H639   1.085       .  S
C640       C1218   1.481       .  S
C640        C641   1.392       .  A
C640        C645   1.420       .  A
C641        H646   1.085       .  S
C641        C642   1.398       .  A
C642       C1769   1.470       .  S
C642        C643   1.397       .  A
C643        H647   1.084       .  S
C643        C644   1.394       .  A
C644        C690   1.484       .  S
C644        C645   1.420       .  A
C645        H648   1.083       .  S
O649       Mg651   2.180       .  S
O649       Mg657   2.184       .  S
O649        C684   1.233       .  S
C650        O663   1.232       .  S
C650        O687   1.266   1_554  A
C650        H689   1.081       .  S
Mg651       O680   2.185   1_554  S
Mg651       O695   2.315       .  S
Mg651       O691   2.292       .  S
Mg651       O662   2.297       .  S
O652       Mg694   2.177   1_554  S
O652       Mg677   2.166       .  S
O652        C673   1.233       .  S
O653        C684   1.269   1_655  A
O653       Mg677   2.301       .  S
C654        O656   1.275   1_655  A
C654        O668   1.275       .  A
C654       C1141   1.478       .  S
O655        C683   1.267   1_554  A
O655       Mg657   2.294       .  S
O656       Mg688   2.270       .  S
Mg657       O663   2.171       .  S
Mg657       O671   2.278       .  S
Mg657       O659   2.306       .  S
C658        O696   1.277       .  A
C658        O664   1.274       .  A
O659        C666   1.274       .  A
H660        C673   1.079       .  S
C661        O675   1.227       .  S
C661        O676   1.266   1_655  A
C661        H686   1.080       .  S
O662        C685   1.267   1_454  A
O663       Mg677   2.187   1_455  S
O664       Mg694   2.307       .  S
C665        O678   1.277       .  A
C665        O670   1.276       .  A
C665       C1290   1.485       .  S
C666        O693   1.275   1_455  A
C666        C996   1.477       .  S
Mg667       O674   2.177       .  S
Mg667       O675   2.167       .  S
Mg667       O668   2.313       .  S
Mg667       O669   2.297   1_556  S
Mg667       O696   2.283       .  S
O669        C673   1.268       .  A
O670       Mg677   2.325       .  S
O671        C690   1.276       .  A
O672        C692   1.274       .  A
O672       Mg688   2.313       .  S
O674       Mg688   2.190   1_655  S
O674        C685   1.232       .  S
O675       Mg694   2.172       .  S
O676       Mg688   2.291       .  S
Mg677       O693   2.274       .  S
O678       Mg694   2.286   1_554  S
H679        C684   1.080       .  S
O680       Mg688   2.166       .  S
O680        C683   1.233       .  S
H681        C683   1.081       .  S
H682        C685   1.080       .  S
O687       Mg694   2.292   1_455  S
C690        O695   1.275       .  A
O691        C692   1.277   1_554  A
C692        C746   1.484       .  S
C697       C1738   1.458       .  S
C697        C698   1.396       .  A
C697        C702   1.390       .  A
C698        H703   1.081       .  S
C698        C699   1.406       .  A
C699       C1724   1.491       .  S
C699        C700   1.408       .  A
C700        H704   1.081       .  S
C700        C701   1.394       .  A
C701       C1752   1.459       .  S
C701        C702   1.390       .  A
C702        H705   1.085       .  S
C706        C707   1.395       .  A
C706        C711   1.419       .  A
C707        H712   1.085   1_455  S
C707        C708   1.397       .  A
C708       C1741   1.463   1_455  S
C708        C709   1.397       .  A
C709        H713   1.085       .  S
C709        C710   1.395       .  A
C710        C786   1.479       .  S
C710        C711   1.419       .  A
C711        H714   1.083       .  S
C715        C716   1.390       .  A
C715        C720   1.419       .  A
C716        H721   1.085   1_565  S
C716        C717   1.393       .  A
C717       C1755   1.462   1_565  S
C717        C718   1.398       .  A
C718        H722   1.085       .  S
C718        C719   1.398       .  A
C719        C720   1.419       .  A
C720        H723   1.083       .  S
C724        C860   1.483       .  S
C724        C725   1.411       .  A
C724        C729   1.395       .  A
C725        H730   1.083       .  S
C725        C726   1.413       .  A
C726        C727   1.393       .  A
C727        H731   1.079       .  S
C727        C728   1.410       .  A
C728       C1727   1.502       .  S
C728        C729   1.408       .  A
C729        H732   1.080       .  S
C733       C1109   1.475       .  S
C733        C734   1.393       .  A
C733        C738   1.416       .  A
C734        H739   1.085   1_655  S
C734        C735   1.400       .  A
C735       C1710   1.467   1_655  S
C735        C736   1.398       .  A
C736        H740   1.084       .  S
C736        C737   1.388       .  A
C737        C822   1.473       .  S
C737        C738   1.416       .  A
C738        H741   1.083       .  S
C742        C785   1.480       .  S
C742        C743   1.393       .  A
C742        C747   1.421       .  A
C743        H748   1.085       .  S
C743        C744   1.397       .  A
C744       C1696   1.466   1_556  S
C744        C745   1.397       .  A
C745        H749   1.085   1_556  S
C745        C746   1.392       .  A
C746        C747   1.421       .  A
C747        H750   1.083       .  S
C751       C1713   1.456       .  S
C751        C752   1.396       .  A
C751        C756   1.394       .  A
C752        H757   1.085       .  S
C752        C753   1.395       .  A
C753       C1699   1.455       .  S
C753        C754   1.392       .  A
C754        H758   1.085       .  S
C754        C755   1.393       .  A
C755       C1682   1.450       .  S
C755        C756   1.392       .  A
C756        H759   1.085       .  S
C760        C761   1.391       .  A
C760        C765   1.420       .  A
C761        H766   1.085   1_565  S
C761        C762   1.394       .  A
C762       C1685   1.460   1_565  S
C762        C763   1.395       .  A
C763        H767   1.085       .  S
C763        C764   1.392       .  A
C764        C917   1.476       .  S
C764        C765   1.420       .  A
C765        H768   1.083       .  S
O769       Mg771   2.172       .  S
O769       Mg777   2.155       .  S
O769        C804   1.234       .  S
C770        O783   1.235       .  S
C770        O807   1.271       .  A
C770        H809   1.081       .  S
Mg771       O800   2.151       .  S
Mg771       O815   2.295       .  S
Mg771       O811   2.296       .  S
Mg771       O782   2.304       .  S
O772       Mg814   2.163       .  S
O772       Mg797   2.180       .  S
O772        C793   1.234       .  S
O773        C804   1.270       .  A
O773       Mg797   2.313       .  S
C774        O776   1.273       .  A
C774        O788   1.274       .  A
O775        C803   1.272       .  A
O775       Mg777   2.315       .  S
O776       Mg808   2.306       .  S
Mg777       O783   2.183       .  S
Mg777       O791   2.309       .  S
Mg777       O779   2.295       .  S
C778        O816   1.273       .  A
C778        O784   1.274       .  A
C778        C892   1.478       .  S
O779        C786   1.274       .  A
H780        C793   1.080       .  S
C781        O795   1.234       .  S
C781        O796   1.270       .  A
C781        H806   1.081       .  S
O782        C805   1.271       .  A
O783       Mg797   2.166       .  S
O784       Mg814   2.296       .  S
C785        O798   1.273       .  A
C785        O790   1.275       .  A
C786        O813   1.273       .  A
Mg787       O794   2.179       .  S
Mg787       O795   2.169       .  S
Mg787       O788   2.298       .  S
Mg787       O789   2.312       .  S
Mg787       O816   2.306       .  S
O789        C793   1.270       .  A
O790       Mg797   2.306       .  S
O791        C810   1.272       .  A
O792        C812   1.274       .  A
O792       Mg808   2.302       .  S
O794       Mg808   2.164       .  S
O794        C805   1.233       .  S
O795       Mg814   2.179       .  S
O796       Mg808   2.310       .  S
Mg797       O813   2.309       .  S
O798       Mg814   2.303       .  S
H799        C804   1.081       .  S
O800       Mg808   2.178       .  S
O800        C803   1.232       .  S
H801        C803   1.074       .  S
H802        C805   1.075       .  S
O807       Mg814   2.312       .  S
C810        O815   1.274       .  A
O811        C812   1.272       .  A
O817       Mg819   2.184       .  S
O817       Mg825   2.159       .  S
O817        C852   1.235       .  S
C818        O831   1.235       .  S
C818        O855   1.271       .  A
C818        H857   1.081       .  S
Mg819       O848   2.152       .  S
Mg819       O863   2.306       .  S
Mg819       O859   2.314       .  S
Mg819       O830   2.318       .  S
O820       Mg862   2.168       .  S
O820       Mg845   2.175       .  S
O820        C841   1.233       .  S
O821        C852   1.272       .  A
O821       Mg845   2.319       .  S
C822        O824   1.270       .  A
C822        O836   1.273       .  A
O823        C851   1.272       .  A
O823       Mg825   2.319       .  S
O824       Mg856   2.283       .  S
Mg825       O831   2.186       .  S
Mg825       O839   2.310       .  S
Mg825       O827   2.303       .  S
C826        O864   1.274       .  A
C826        O832   1.275       .  A
C826        C951   1.479       .  S
O827        C834   1.274       .  A
H828        C841   1.080       .  S
C829        O843   1.234       .  S
C829        O844   1.270       .  A
C829        H854   1.081       .  S
O830        C853   1.272       .  A
O831       Mg845   2.162       .  S
O832       Mg862   2.306       .  S
C833        O846   1.273       .  A
C833        O838   1.274       .  A
C834        O861   1.272       .  A
Mg835       O842   2.179       .  S
Mg835       O843   2.171       .  S
Mg835       O836   2.294       .  S
Mg835       O837   2.306       .  S
Mg835       O864   2.301       .  S
O837        C841   1.269       .  A
O838       Mg845   2.298       .  S
O839        C858   1.273       .  A
O840        C860   1.271       .  A
O840       Mg856   2.290       .  S
O842       Mg856   2.165       .  S
O842        C853   1.235       .  S
O843       Mg862   2.174       .  S
O844       Mg856   2.309       .  S
Mg845       O861   2.297       .  S
O846       Mg862   2.305       .  S
H847        C852   1.081       .  S
O848       Mg856   2.178       .  S
O848        C851   1.234       .  S
H849        C851   1.081       .  S
H850        C853   1.081       .  S
O855       Mg862   2.316       .  S
C858        O863   1.275       .  A
C858       C1014   1.483       .  S
O859        C860   1.274       .  A
C865        C918   1.480       .  S
C865        C866   1.395       .  A
C865        C870   1.420       .  A
C866        H871   1.084       .  S
C866        C867   1.398       .  A
C867       C1668   1.469   1_554  S
C867        C868   1.399       .  A
C868        H872   1.085   1_554  S
C868        C869   1.392       .  A
C869        C870   1.419       .  A
C870        H873   1.083       .  S
C874       C1640   1.455       .  S
C874        C875   1.397       .  A
C874        C879   1.396       .  A
C875        H880   1.084       .  S
C875        C876   1.394       .  A
C876       C1671   1.464       .  S
C876        C877   1.396       .  A
C877        H881   1.085       .  S
C877        C878   1.394       .  A
C878       C1657   1.454       .  S
C878        C879   1.393       .  A
C879        H882   1.084       .  S
C883        C884   1.420       .  A
C883        C888   1.390       .  A
C884        H889   1.083       .  S
C884        C885   1.418       .  A
C885        C886   1.396       .  A
C886        H890   1.085   1_655  S
C886        C887   1.395       .  A
C887       C1654   1.457   1_655  S
C887        C888   1.395       .  A
C888        H891   1.085       .  S
C892        C893   1.418       .  A
C892        C897   1.392       .  A
C893        H898   1.083       .  S
C893        C894   1.418       .  A
C894        C895   1.392       .  A
C895        H899   1.085       .  S
C895        C896   1.400       .  A
C896       C1643   1.468       .  S
C896        C897   1.399       .  A
C897        H900   1.084       .  S
O901       Mg903   2.177       .  S
O901       Mg909   2.158       .  S
O901        C936   1.235       .  S
C902        O915   1.234       .  S
C902        O939   1.270       .  A
C902        H941   1.081       .  S
Mg903       O932   2.170       .  S
Mg903       O947   2.291       .  S
Mg903       O943   2.291       .  S
Mg903       O914   2.303       .  S
O904       Mg946   2.174       .  S
O904       Mg929   2.178       .  S
O904        C925   1.233       .  S
O905        C936   1.271       .  A
O905       Mg929   2.315       .  S
C906        O908   1.273       .  A
C906        O920   1.273       .  A
O907        C935   1.271       .  A
O907       Mg909   2.311       .  S
O908       Mg940   2.297       .  S
Mg909       O915   2.174       .  S
Mg909       O923   2.299       .  S
Mg909       O911   2.298       .  S
C910        O948   1.271       .  A
C910        O916   1.274       .  A
C910        C976   1.474       .  S
O911        C918   1.274       .  A
H912        C925   1.081       .  S
C913        O927   1.233       .  S
C913        O928   1.270       .  A
C913        H938   1.080       .  S
O914        C937   1.269       .  A
O915       Mg929   2.159       .  S
O916       Mg946   2.300       .  S
C917        O930   1.274       .  A
C917        O922   1.275       .  A
C918        O945   1.274       .  A
Mg919       O926   2.175       .  S
Mg919       O927   2.172       .  S
Mg919       O920   2.293       .  S
Mg919       O921   2.305       .  S
Mg919       O948   2.283       .  S
O921        C925   1.269       .  A
O922       Mg929   2.295       .  S
O923        C942   1.272       .  A
O924        C944   1.273       .  A
O924       Mg940   2.299       .  S
O926       Mg940   2.166       .  S
O926        C937   1.234       .  S
O927       Mg946   2.181       .  S
O928       Mg940   2.310       .  S
Mg929       O945   2.310       .  S
O930       Mg946   2.303       .  S
H931        C936   1.081       .  S
O932       Mg940   2.172       .  S
O932        C935   1.235       .  S
H933        C935   1.081       .  S
H934        C937   1.079       .  S
O939       Mg946   2.310       .  S
C942        O947   1.273       .  A
C942        C994   1.475       .  S
O943        C944   1.272       .  A
C949        C950   1.419       .  A
C949        C954   1.396       .  A
C950        H955   1.083       .  S
C950        C951   1.419       .  A
C951        C952   1.393       .  A
C952        H956   1.085       .  S
C952        C953   1.399       .  A
C953       C1626   1.473   1_545  S
C953        C954   1.400       .  A
C954        H957   1.084   1_545  S
C958       C1629   1.461       .  S
C958        C959   1.397       .  A
C958        C963   1.396       .  A
C959        H964   1.084       .  S
C959        C960   1.396       .  A
C960       C1598   1.455       .  S
C960        C961   1.395       .  A
C961        H965   1.085       .  S
C961        C962   1.394       .  A
C962       C1615   1.455       .  S
C962        C963   1.393       .  A
C963        H966   1.085       .  S
C967        C968   1.422       .  A
C967        C972   1.395       .  A
C968        H973   1.083       .  S
C968        C969   1.421       .  A
C969        C970   1.392       .  A
C970        H974   1.085   1_556  S
C970        C971   1.392       .  A
C971       C1612   1.453   1_556  S
C971        C972   1.394       .  A
C972        H975   1.085       .  S
C976        C977   1.419       .  A
C976        C981   1.388       .  A
C977        H982   1.083       .  S
C977        C978   1.419       .  A
C978        C979   1.397       .  A
C979        H983   1.085       .  S
C979        C980   1.398       .  A
C980       C1601   1.460       .  S
C980        C981   1.395       .  A
C981        H984   1.085       .  S
C985       C1570   1.455       .  S
C985        C986   1.394       .  A
C985        C990   1.393       .  A
C986        H991   1.084       .  S
C986        C987   1.393       .  A
C987       C1587   1.453       .  S
C987        C988   1.394       .  A
C988        H992   1.084       .  S
C988        C989   1.399       .  A
C989       C1556   1.467       .  S
C989        C990   1.398       .  A
C990        H993   1.084       .  S
C994        C995   1.417       .  A
C994        C999   1.394       .  A
C995       H1000   1.083       .  S
C995        C996   1.417       .  A
C996        C997   1.392       .  A
C997       H1001   1.085   1_455  S
C997        C998   1.397       .  A
C998       C1573   1.467   1_455  S
C998        C999   1.398       .  A
C999       H1002   1.084       .  S
C1003      C1004   1.394       .  A
C1003      C1008   1.420       .  A
C1004      H1009   1.085       .  S
C1004      C1005   1.396       .  A
C1005      C1559   1.460       .  S
C1005      C1006   1.395       .  A
C1006      H1010   1.085       .  S
C1006      C1007   1.392       .  A
C1007      C1098   1.477       .  S
C1007      C1008   1.419       .  A
C1008      H1011   1.083       .  S
C1012      C1013   1.422       .  A
C1012      C1017   1.393       .  A
C1013      H1018   1.083       .  S
C1013      C1014   1.421       .  A
C1014      C1015   1.394       .  A
C1015      H1019   1.085       .  S
C1015      C1016   1.394       .  A
C1016      C1584   1.456       .  S
C1016      C1017   1.396       .  A
C1017      H1020   1.085       .  S
C1021      C1022   1.417       .  A
C1021      C1026   1.393       .  A
C1022      H1027   1.083       .  S
C1022      C1023   1.419       .  A
C1023      C1024   1.396       .  A
C1024      H1028   1.085   1_655  S
C1024      C1025   1.398       .  A
C1025      C1545   1.466   1_655  S
C1025      C1026   1.397       .  A
C1026      H1029   1.085       .  S
C1030      C1528   1.460       .  S
C1030      C1031   1.396       .  A
C1030      C1035   1.395       .  A
C1031      H1036   1.084       .  S
C1031      C1032   1.398       .  A
C1032      C1542   1.471       .  S
C1032      C1033   1.398       .  A
C1033      H1037   1.084       .  S
C1033      C1034   1.396       .  A
C1034      C1514   1.459       .  S
C1034      C1035   1.394       .  A
C1035      H1038   1.084       .  S
C1039      C1186   1.482       .  S
C1039      C1040   1.393       .  A
C1039      C1044   1.420       .  A
C1040      H1045   1.085       .  S
C1040      C1041   1.398       .  A
C1041      C1517   1.468   1_545  S
C1041      C1042   1.398       .  A
C1042      H1046   1.085   1_545  S
C1042      C1043   1.395       .  A
C1043      C1044   1.420       .  A
C1044      H1047   1.083       .  S
C1048      C1049   1.392       .  A
C1048      C1053   1.414       .  A
C1049      H1054   1.084       .  S
C1049      C1050   1.402       .  A
C1050      C1531   1.474       .  S
C1050      C1051   1.401       .  A
C1051      H1055   1.084       .  S
C1051      C1052   1.393       .  A
C1052      C1338   1.474       .  S
C1052      C1053   1.414       .  A
C1053      H1056   1.084       .  S
C1057      C1058   1.394       .  A
C1057      C1062   1.419       .  A
C1058      H1063   1.084   1_565  S
C1058      C1059   1.399       .  A
C1059      C1500   1.472   1_565  S
C1059      C1060   1.400       .  A
C1060      H1064   1.084       .  S
C1060      C1061   1.392       .  A
C1061      C1302   1.477       .  S
C1061      C1062   1.419       .  A
C1062      H1065   1.083       .  S
C1066      C1486   1.452       .  S
C1066      C1067   1.392       .  A
C1066      C1071   1.391       .  A
C1067      H1072   1.085       .  S
C1067      C1068   1.393       .  A
C1068      C1503   1.461       .  S
C1068      C1069   1.397       .  A
C1069      H1073   1.084       .  S
C1069      C1070   1.397       .  A
C1070      C1475   1.454       .  S
C1070      C1071   1.393       .  A
C1071      H1074   1.085       .  S
C1075      C1076   1.391       .  A
C1075      C1080   1.424       .  A
C1076      H1081   1.085   1_554  S
C1076      C1077   1.392       .  A
C1077      C1472   1.450   1_554  S
C1077      C1078   1.391       .  A
C1078      H1082   1.085       .  S
C1078      C1079   1.394       .  A
C1079      C1194   1.486       .  S
C1079      C1080   1.423       .  A
C1080      H1083   1.083       .  S
C1084      C1085   1.420       .  A
C1084      C1089   1.389       .  A
C1085      H1090   1.083       .  S
C1085      C1086   1.420       .  A
C1086      C1087   1.393       .  A
C1087      H1091   1.085       .  S
C1087      C1088   1.393       .  A
C1088      C1489   1.459       .  S
C1088      C1089   1.395       .  A
C1089      H1092   1.085       .  S
O1093     Mg1095   2.179       .  S
O1093     Mg1101   2.179       .  S
O1093      C1128   1.234       .  S
C1094      O1107   1.233       .  S
C1094      O1131   1.269       .  A
C1094      H1133   1.079       .  S
Mg1095     O1124   2.172   1_545  S
Mg1095     O1139   2.305       .  S
Mg1095     O1135   2.302   1_545  S
Mg1095     O1106   2.310   1_455  S
O1096     Mg1138   2.172   1_545  S
O1096     Mg1121   2.177       .  S
O1096      C1117   1.235       .  S
O1097      C1128   1.270       .  A
O1097     Mg1121   2.308   1_455  S
C1098      O1100   1.274       .  A
C1098      O1112   1.273       .  A
O1099      C1127   1.269       .  A
O1099     Mg1101   2.306   1_565  S
O1100     Mg1132   2.307       .  S
Mg1101     O1107   2.170       .  S
Mg1101     O1115   2.284       .  S
Mg1101     O1103   2.295       .  S
C1102      O1140   1.273       .  A
C1102      O1108   1.273       .  A
O1103      C1110   1.273       .  A
H1104      C1117   1.081       .  S
C1105      O1119   1.234       .  S
C1105      O1120   1.270       .  A
C1105      H1130   1.081       .  S
O1106      C1129   1.270   1_545  A
O1107     Mg1121   2.166   1_455  S
O1108     Mg1138   2.294       .  S
C1109      O1122   1.273       .  A
C1109      O1114   1.274       .  A
C1110      O1137   1.274       .  A
C1110      C1159   1.477       .  S
Mg1111     O1118   2.184       .  S
Mg1111     O1119   2.165       .  S
Mg1111     O1112   2.292       .  S
Mg1111     O1113   2.311   1_565  S
Mg1111     O1140   2.310       .  S
O1113      C1117   1.271       .  A
O1114     Mg1121   2.302       .  S
O1115      C1134   1.272       .  A
O1116      C1136   1.275       .  A
O1116     Mg1132   2.300   1_455  S
O1118     Mg1132   2.169       .  S
O1118      C1129   1.234       .  S
O1119     Mg1138   2.174       .  S
O1120     Mg1132   2.309       .  S
Mg1121     O1137   2.305   1_655  S
O1122     Mg1138   2.294   1_545  S
H1123      C1128   1.079       .  S
O1124     Mg1132   2.180   1_455  S
O1124      C1127   1.232       .  S
H1125      C1127   1.079       .  S
H1126      C1129   1.080       .  S
O1131     Mg1138   2.305   1_445  S
C1134      O1139   1.274       .  A
O1135      C1136   1.274       .  A
C1136      C1274   1.478       .  S
C1141      C1142   1.420       .  A
C1141      C1146   1.394       .  A
C1142      H1147   1.083       .  S
C1142      C1143   1.420       .  A
C1143      C1144   1.397       .  A
C1144      H1148   1.085       .  S
C1144      C1145   1.392       .  A
C1145      C1458   1.452   1_655  S
C1145      C1146   1.390       .  A
C1146      H1149   1.085   1_655  S
C1150      C1461   1.454       .  S
C1150      C1151   1.394       .  A
C1150      C1155   1.394       .  A
C1151      H1156   1.085       .  S
C1151      C1152   1.397       .  A
C1152      C1430   1.466       .  S
C1152      C1153   1.400       .  A
C1153      H1157   1.084       .  S
C1153      C1154   1.396       .  A
C1154      C1444   1.458       .  S
C1154      C1155   1.393       .  A
C1155      H1158   1.085       .  S
C1159      C1160   1.393       .  A
C1159      C1164   1.421       .  A
C1160      H1165   1.085       .  S
C1160      C1161   1.395       .  A
C1161      C1433   1.461       .  S
C1161      C1162   1.395       .  A
C1162      H1166   1.085       .  S
C1162      C1163   1.394       .  A
C1163      C1182   1.485       .  S
C1163      C1164   1.421       .  A
C1164      H1167   1.083       .  S
C1168      C1314   1.481       .  S
C1168      C1169   1.418       .  A
C1168      C1173   1.396       .  A
C1169      H1174   1.083       .  S
C1169      C1170   1.419       .  A
C1170      C1171   1.391       .  A
C1171      H1175   1.085       .  S
C1171      C1172   1.398       .  A
C1172      C1447   1.462       .  S
C1172      C1173   1.398       .  A
C1173      H1176   1.085       .  S
O1177     Mg1179   2.171       .  S
O1177     Mg1185   2.181       .  S
O1177      C1212   1.232       .  S
C1178      O1191   1.231       .  S
C1178      O1215   1.268       .  A
C1178      H1217   1.077       .  S
Mg1179     O1208   2.185       .  S
Mg1179     O1223   2.308       .  S
Mg1179     O1219   2.283       .  S
Mg1179     O1190   2.297       .  S
O1180     Mg1222   2.185       .  S
O1180     Mg1205   2.176       .  S
O1180      C1201   1.231       .  S
O1181      C1212   1.267       .  A
O1181     Mg1205   2.292       .  S
C1182      O1184   1.275       .  A
C1182      O1196   1.276       .  A
O1183      C1211   1.267       .  A
O1183     Mg1185   2.294       .  S
O1184     Mg1216   2.273       .  S
Mg1185     O1191   2.177       .  S
Mg1185     O1199   2.290       .  S
Mg1185     O1187   2.324       .  S
C1186      O1224   1.276       .  A
C1186      O1192   1.276       .  A
O1187      C1194   1.276       .  A
H1188      C1201   1.079       .  S
C1189      O1203   1.233       .  S
C1189      O1204   1.268       .  A
C1189      H1214   1.081       .  S
O1190      C1213   1.268       .  A
O1191     Mg1205   2.171       .  S
O1192     Mg1222   2.321       .  S
C1193      O1206   1.278       .  A
C1193      O1198   1.273       .  A
C1194      O1221   1.276       .  A
Mg1195     O1202   2.177       .  S
Mg1195     O1203   2.193       .  S
Mg1195     O1196   2.322       .  S
Mg1195     O1197   2.298       .  S
Mg1195     O1224   2.286       .  S
O1197      C1201   1.267       .  A
O1198     Mg1205   2.303       .  S
O1199      C1218   1.278       .  A
O1200      C1220   1.274       .  A
O1200     Mg1216   2.314       .  S
O1202     Mg1216   2.187       .  S
O1202      C1213   1.233       .  S
O1203     Mg1222   2.182       .  S
O1204     Mg1216   2.300       .  S
Mg1205     O1221   2.276       .  S
O1206     Mg1222   2.293       .  S
H1207      C1212   1.079       .  S
O1208     Mg1216   2.168       .  S
O1208      C1211   1.233       .  S
H1209      C1211   1.081       .  S
H1210      C1213   1.081       .  S
O1215     Mg1222   2.298       .  S
C1218      O1223   1.274       .  A
O1219      C1220   1.276       .  A
C1220      C1245   1.483       .  S
C1225      C1388   1.457       .  S
C1225      C1226   1.395       .  A
C1225      C1230   1.395       .  A
C1226      H1231   1.085       .  S
C1226      C1227   1.395       .  A
C1227      C1402   1.457       .  S
C1227      C1228   1.394       .  A
C1228      H1232   1.085       .  S
C1228      C1229   1.393       .  A
C1229      C1419   1.456       .  S
C1229      C1230   1.395       .  A
C1230      H1233   1.085       .  S
C1234      C1235   1.421       .  A
C1234      C1239   1.395       .  A
C1235      H1240   1.083       .  S
C1235      C1236   1.421       .  A
C1236      C1237   1.393       .  A
C1237      H1241   1.085       .  S
C1237      C1238   1.397       .  A
C1238      C1391   1.470   1_556  S
C1238      C1239   1.397       .  A
C1239      H1242   1.084   1_556  S
C1243      C1244   1.420       .  A
C1243      C1248   1.393       .  A
C1244      H1249   1.083       .  S
C1244      C1245   1.420       .  A
C1245      C1246   1.393       .  A
C1246      H1250   1.085       .  S
C1246      C1247   1.397       .  A
C1247      C1405   1.468   1_455  S
C1247      C1248   1.398       .  A
C1248      H1251   1.084   1_455  S
C1252      C1253   1.417       .  A
C1252      C1257   1.392       .  A
C1253      H1258   1.083       .  S
C1253      C1254   1.417       .  A
C1254      C1255   1.392       .  A
C1255      H1259   1.085       .  S
C1255      C1256   1.398       .  A
C1256      C1416   1.464       .  S
C1256      C1257   1.398       .  A
C1257      H1260   1.085       .  S
C1261      C1377   1.457       .  S
C1261      C1262   1.395       .  A
C1261      C1266   1.397       .  A
C1262      H1267   1.084       .  S
C1262      C1263   1.395       .  A
C1263      C1360   1.456       .  S
C1263      C1264   1.394       .  A
C1264      H1268   1.085       .  S
C1264      C1265   1.390       .  A
C1265      C1346   1.452       .  S
C1265      C1266   1.394       .  A
C1266      H1269   1.084       .  S
C1270      C1340   1.480       .  S
C1270      C1271   1.393       .  A
C1270      C1275   1.419       .  A
C1271      H1276   1.085       .  S
C1271      C1272   1.398       .  A
C1272      C1374   1.465   1_455  S
C1272      C1273   1.398       .  A
C1273      H1277   1.085   1_455  S
C1273      C1274   1.390       .  A
C1274      C1275   1.420       .  A
C1275      H1278   1.083       .  S
C1279      C1280   1.422       .  A
C1279      C1284   1.392       .  A
C1280      H1285   1.083       .  S
C1280      C1281   1.422       .  A
C1281      C1282   1.396       .  A
C1282      H1286   1.085   1_545  S
C1282      C1283   1.392       .  A
C1283      C1349   1.449   1_545  S
C1283      C1284   1.388       .  A
C1284      H1287   1.085       .  S
C1288      C1289   1.421       .  A
C1288      C1293   1.389       .  A
C1289      H1294   1.083       .  S
C1289      C1290   1.421       .  A
C1290      C1291   1.394       .  A
C1291      H1295   1.084   1_554  S
C1291      C1292   1.399       .  A
C1292      C1363   1.468   1_554  S
C1292      C1293   1.396       .  A
C1293      H1296   1.084       .  S
O1297     Mg1299   2.183       .  S
O1297     Mg1305   2.165       .  S
O1297      C1332   1.235       .  S
C1298      O1311   1.234       .  S
C1298      O1335   1.270       .  A
C1298      H1337   1.081       .  S
Mg1299     O1328   2.166       .  S
Mg1299     O1343   2.294       .  S
Mg1299     O1339   2.310       .  S
Mg1299     O1310   2.308       .  S
O1300     Mg1342   2.160       .  S
O1300     Mg1325   2.178       .  S
O1300      C1321   1.231       .  S
O1301      C1332   1.271       .  A
O1301     Mg1325   2.316       .  S
C1302      O1304   1.273       .  A
C1302      O1316   1.274       .  A
O1303      C1331   1.271       .  A
O1303     Mg1305   2.309       .  S
O1304     Mg1336   2.299       .  S
Mg1305     O1311   2.176       .  S
Mg1305     O1319   2.292       .  S
Mg1305     O1307   2.294       .  S
C1306      O1344   1.273       .  A
C1306      O1312   1.274       .  A
O1307      C1314   1.273       .  A
H1308      C1321   1.076       .  S
C1309      O1323   1.232       .  S
C1309      O1324   1.270       .  A
C1309      H1334   1.078       .  S
O1310      C1333   1.270       .  A
O1311     Mg1325   2.158       .  S
O1312     Mg1342   2.297       .  S
C1313      O1326   1.273       .  A
C1313      O1318   1.275       .  A
C1314      O1341   1.274       .  A
Mg1315     O1322   2.175       .  S
Mg1315     O1323   2.165       .  S
Mg1315     O1316   2.300       .  S
Mg1315     O1317   2.310       .  S
Mg1315     O1344   2.297       .  S
O1317      C1321   1.270       .  A
O1318     Mg1325   2.302       .  S
O1319      C1338   1.271       .  A
O1320      C1340   1.274       .  A
O1320     Mg1336   2.296       .  S
O1322     Mg1336   2.162       .  S
O1322      C1333   1.231       .  S
O1323     Mg1342   2.175       .  S
O1324     Mg1336   2.310       .  S
Mg1325     O1341   2.317       .  S
O1326     Mg1342   2.296       .  S
H1327      C1332   1.080       .  S
O1328     Mg1336   2.175       .  S
O1328      C1331   1.233       .  S
H1329      C1331   1.077       .  S
H1330      C1333   1.075       .  S
O1335     Mg1342   2.309       .  S
C1338      O1343   1.273       .  A
O1339      C1340   1.274       .  A
C1345      H1352   1.083       .  S
C1345      C1346   1.398       .  A
C1345      C1350   1.397       .  A
C1346      C1347   1.407       .  A
C1347      C1348   1.390       .  A
C1347      N1354   1.437       .  S
C1348      H1353   1.085       .  S
C1348      C1349   1.397       .  A
C1349      C1350   1.413       .  A
C1350      N1351   1.444   1_565  S
N1351      O1355   1.263       .  A
N1351      O1356   1.262       .  A
N1354      O1357   1.262       .  A
N1354      O1358   1.263       .  A
C1359      H1366   1.084       .  S
C1359      C1360   1.398       .  A
C1359      C1364   1.391   1_556  A
C1360      C1361   1.412       .  A
C1361      C1362   1.395       .  A
C1361      N1368   1.442       .  S
C1362      H1367   1.084       .  S
C1362      C1363   1.404       .  A
C1363      C1364   1.415   1_556  A
C1364      N1365   1.438       .  S
N1365      O1369   1.262       .  A
N1365      O1370   1.263       .  A
N1368      O1371   1.263       .  A
N1368      O1372   1.263       .  A
C1373      H1380   1.084       .  S
C1373      C1374   1.402       .  A
C1373      C1378   1.392       .  A
C1374      C1375   1.414   1_655  A
C1375      C1376   1.396   1_455  A
C1375      N1382   1.440       .  S
C1376      H1381   1.084       .  S
C1376      C1377   1.399       .  A
C1377      C1378   1.410       .  A
C1378      N1379   1.439       .  S
N1379      O1383   1.263       .  A
N1379      O1384   1.262       .  A
N1382      O1385   1.263       .  A
N1382      O1386   1.263       .  A
C1387      H1394   1.084       .  S
C1387      C1388   1.398       .  A
C1387      C1392   1.394       .  A
C1388      C1389   1.412       .  A
C1389      C1390   1.395       .  A
C1389      N1396   1.442       .  S
C1390      H1395   1.084   1_554  S
C1390      C1391   1.404       .  A
C1391      C1392   1.415       .  A
C1392      N1393   1.439       .  S
N1393      O1397   1.263       .  A
N1393      O1398   1.263       .  A
N1396      O1399   1.262       .  A
N1396      O1400   1.263   1_554  A
C1401      H1408   1.084       .  S
C1401      C1402   1.399       .  A
C1401      C1406   1.393       .  A
C1402      C1403   1.412       .  A
C1403      C1404   1.394       .  A
C1403      N1410   1.442       .  S
C1404      H1409   1.084   1_655  S
C1404      C1405   1.404       .  A
C1405      C1406   1.414       .  A
C1406      N1407   1.439       .  S
N1407      O1411   1.263       .  A
N1407      O1412   1.262       .  A
N1410      O1413   1.262       .  A
N1410      O1414   1.263   1_655  A
C1415      H1422   1.084       .  S
C1415      C1416   1.402       .  A
C1415      C1420   1.395       .  A
C1416      C1417   1.414       .  A
C1417      C1418   1.394       .  A
C1417      N1424   1.440       .  S
C1418      H1423   1.084       .  S
C1418      C1419   1.398       .  A
C1419      C1420   1.413       .  A
C1420      N1421   1.443       .  S
N1421      O1425   1.263       .  A
N1421      O1426   1.262       .  A
N1424      O1427   1.263       .  A
N1424      O1428   1.263       .  A
C1429      H1436   1.084       .  S
C1429      C1430   1.403       .  A
C1429      C1434   1.396       .  A
C1430      C1431   1.412       .  A
C1431      C1432   1.393       .  A
C1431      N1438   1.438       .  S
C1432      H1437   1.084       .  S
C1432      C1433   1.400       .  A
C1433      C1434   1.412       .  A
C1434      N1435   1.440       .  S
N1435      O1439   1.263       .  A
N1435      O1440   1.263       .  A
N1438      O1441   1.262       .  A
N1438      O1442   1.263       .  A
C1443      H1450   1.082       .  S
C1443      C1444   1.399       .  A
C1443      C1448   1.405       .  A
C1444      C1445   1.404       .  A
C1445      C1446   1.387       .  A
C1445      N1452   1.434       .  S
C1446      H1451   1.085       .  S
C1446      C1447   1.400       .  A
C1447      C1448   1.421       .  A
C1448      N1449   1.449       .  S
N1449      O1453   1.263       .  A
N1449      O1454   1.261       .  A
N1452      O1455   1.262       .  A
N1452      O1456   1.263       .  A
C1457      H1464   1.084       .  S
C1457      C1458   1.397       .  A
C1457      C1462   1.396       .  A
C1458      C1459   1.411       .  A
C1459      C1460   1.396       .  A
C1459      N1466   1.444   1_455  S
C1460      H1465   1.084       .  S
C1460      C1461   1.400       .  A
C1461      C1462   1.415       .  A
C1462      N1463   1.445       .  S
N1463      O1467   1.263       .  A
N1463      O1468   1.262       .  A
N1466      O1469   1.262       .  A
N1466      O1470   1.263       .  A
C1471      H1478   1.084       .  S
C1471      C1472   1.398       .  A
C1471      C1476   1.392       .  A
C1472      C1473   1.412       .  A
C1473      C1474   1.395       .  A
C1473      N1480   1.443   1_556  S
C1474      H1479   1.084       .  S
C1474      C1475   1.400       .  A
C1475      C1476   1.411       .  A
C1476      N1477   1.442       .  S
N1477      O1481   1.263       .  A
N1477      O1482   1.263       .  A
N1480      O1483   1.263       .  A
N1480      O1484   1.263       .  A
C1485      H1492   1.084       .  S
C1485      C1486   1.398       .  A
C1485      C1490   1.394       .  A
C1486      C1487   1.407       .  A
C1487      C1488   1.388       .  A
C1487      N1494   1.437       .  S
C1488      H1493   1.084       .  S
C1488      C1489   1.400       .  A
C1489      C1490   1.414       .  A
C1490      N1491   1.441       .  S
N1491      O1495   1.263       .  A
N1491      O1496   1.263       .  A
N1494      O1497   1.263       .  A
N1494      O1498   1.263       .  A
C1499      H1506   1.083       .  S
C1499      C1500   1.404   1_565  A
C1499      C1504   1.395   1_565  A
C1500      C1501   1.415       .  A
C1501      C1502   1.394       .  A
C1501      N1508   1.439       .  S
C1502      H1507   1.085       .  S
C1502      C1503   1.400       .  A
C1503      C1504   1.414       .  A
C1504      N1505   1.444       .  S
N1505      O1509   1.262       .  A
N1505      O1510   1.263   1_545  A
N1508      O1511   1.263       .  A
N1508      O1512   1.263       .  A
C1513      H1520   1.082       .  S
C1513      C1514   1.399       .  A
C1513      C1518   1.399       .  A
C1514      C1515   1.410       .  A
C1515      C1516   1.390       .  A
C1515      N1522   1.439       .  S
C1516      H1521   1.084   1_565  S
C1516      C1517   1.401       .  A
C1517      C1518   1.416       .  A
C1518      N1519   1.441       .  S
N1519      O1523   1.263       .  A
N1519      O1524   1.263       .  A
N1522      O1525   1.263       .  A
N1522      O1526   1.263   1_565  A
C1527      H1534   1.084       .  S
C1527      C1528   1.399       .  A
C1527      C1532   1.392       .  A
C1528      C1529   1.412       .  A
C1529      C1530   1.397       .  A
C1529      N1536   1.442       .  S
C1530      H1535   1.083       .  S
C1530      C1531   1.406       .  A
C1531      C1532   1.415       .  A
C1532      N1533   1.438       .  S
N1533      O1537   1.263       .  A
N1533      O1538   1.263       .  A
N1536      O1539   1.262       .  A
N1536      O1540   1.263       .  A
C1541      H1548   1.084       .  S
C1541      C1542   1.404       .  A
C1541      C1546   1.397       .  A
C1542      C1543   1.414       .  A
C1543      C1544   1.393       .  A
C1543      N1550   1.438       .  S
C1544      H1549   1.084       .  S
C1544      C1545   1.401       .  A
C1545      C1546   1.412       .  A
C1546      N1547   1.440       .  S
N1547      O1551   1.263   1_455  A
N1547      O1552   1.263       .  A
N1550      O1553   1.263       .  A
N1550      O1554   1.262       .  A
C1555      H1562   1.084       .  S
C1555      C1556   1.404       .  A
C1555      C1560   1.396       .  A
C1556      C1557   1.414       .  A
C1557      C1558   1.392       .  A
C1557      N1564   1.439       .  S
C1558      H1563   1.084       .  S
C1558      C1559   1.399       .  A
C1559      C1560   1.411       .  A
C1560      N1561   1.441       .  S
N1561      O1565   1.263       .  A
N1561      O1566   1.263       .  A
N1564      O1567   1.263       .  A
N1564      O1568   1.261       .  A
C1569      H1576   1.084       .  S
C1569      C1570   1.399       .  A
C1569      C1574   1.395   1_655  A
C1570      C1571   1.408       .  A
C1571      C1572   1.393       .  A
C1571      N1578   1.439       .  S
C1572      H1577   1.084       .  S
C1572      C1573   1.404       .  A
C1573      C1574   1.414   1_655  A
C1574      N1575   1.440       .  S
N1575      O1579   1.263       .  A
N1575      O1580   1.263       .  A
N1578      O1581   1.263       .  A
N1578      O1582   1.263       .  A
C1583      H1590   1.085       .  S
C1583      C1584   1.399       .  A
C1583      C1588   1.393       .  A
C1584      C1585   1.415       .  A
C1585      C1586   1.400       .  A
C1585      N1592   1.445       .  S
C1586      H1591   1.084       .  S
C1586      C1587   1.399       .  A
C1587      C1588   1.412       .  A
C1588      N1589   1.444       .  S
N1589      O1593   1.263       .  A
N1589      O1594   1.262       .  A
N1592      O1595   1.262       .  A
N1592      O1596   1.263       .  A
C1597      H1604   1.082       .  S
C1597      C1598   1.400       .  A
C1597      C1602   1.401       .  A
C1598      C1599   1.410       .  A
C1599      C1600   1.391       .  A
C1599      N1606   1.442       .  S
C1600      H1605   1.085       .  S
C1600      C1601   1.400       .  A
C1601      C1602   1.415       .  A
C1602      N1603   1.446       .  S
N1603      O1607   1.263       .  A
N1603      O1608   1.262       .  A
N1606      O1609   1.261       .  A
N1606      O1610   1.263       .  A
C1611      H1618   1.085   1_554  S
C1611      C1612   1.399       .  A
C1611      C1616   1.392       .  A
C1612      C1613   1.415       .  A
C1613      C1614   1.399       .  A
C1613      N1620   1.446       .  S
C1614      H1619   1.084       .  S
C1614      C1615   1.399       .  A
C1615      C1616   1.409       .  A
C1616      N1617   1.439       .  S
N1617      O1621   1.263       .  A
N1617      O1622   1.262       .  A
N1620      O1623   1.262       .  A
N1620      O1624   1.263       .  A
C1625      H1632   1.084   1_565  S
C1625      C1626   1.405       .  A
C1625      C1630   1.398       .  A
C1626      C1627   1.415       .  A
C1627      C1628   1.393       .  A
C1627      N1634   1.438       .  S
C1628      H1633   1.084       .  S
C1628      C1629   1.398       .  A
C1629      C1630   1.412       .  A
C1630      N1631   1.441       .  S
N1631      O1635   1.263   1_565  A
N1631      O1636   1.262       .  A
N1634      O1637   1.262       .  A
N1634      O1638   1.263       .  A
C1639      H1646   1.084       .  S
C1639      C1640   1.398       .  A
C1639      C1644   1.397       .  A
C1640      C1641   1.409       .  A
C1641      C1642   1.393       .  A
C1641      N1648   1.441       .  S
C1642      H1647   1.084       .  S
C1642      C1643   1.402       .  A
C1643      C1644   1.416       .  A
C1644      N1645   1.440       .  S
N1645      O1649   1.263       .  A
N1645      O1650   1.263       .  A
N1648      O1651   1.262       .  A
N1648      O1652   1.263       .  A
C1653      H1660   1.085   1_455  S
C1653      C1654   1.397       .  A
C1653      C1658   1.384       .  A
C1654      C1655   1.415       .  A
C1655      C1656   1.404       .  A
C1655      N1662   1.444       .  S
C1656      H1661   1.083       .  S
C1656      C1657   1.401       .  A
C1657      C1658   1.404       .  A
C1658      N1659   1.435       .  S
N1659      O1663   1.263   1_455  A
N1659      O1664   1.263       .  A
N1662      O1665   1.263       .  A
N1662      O1666   1.263       .  A
C1667      H1674   1.084       .  S
C1667      C1668   1.401       .  A
C1667      C1672   1.388       .  A
C1668      C1669   1.416   1_556  A
C1669      C1670   1.400   1_554  A
C1669      N1676   1.440       .  S
C1670      H1675   1.084       .  S
C1670      C1671   1.401       .  A
C1671      C1672   1.409       .  A
C1672      N1673   1.435       .  S
N1673      O1677   1.263       .  A
N1673      O1678   1.263       .  A
N1676      O1679   1.262       .  A
N1676      O1680   1.263       .  A
C1681      H1688   1.083       .  S
C1681      C1682   1.398       .  A
C1681      C1686   1.394   1_545  A
C1682      C1683   1.411       .  A
C1683      C1684   1.391       .  A
C1683      N1690   1.442       .  S
C1684      H1689   1.084       .  S
C1684      C1685   1.401       .  A
C1685      C1686   1.413   1_545  A
C1686      N1687   1.441       .  S
N1687      O1691   1.263       .  A
N1687      O1692   1.263       .  A
N1690      O1693   1.262       .  A
N1690      O1694   1.263       .  A
C1695      H1702   1.084       .  S
C1695      C1696   1.403       .  A
C1695      C1700   1.394       .  A
C1696      C1697   1.414   1_554  A
C1697      C1698   1.394   1_556  A
C1697      N1704   1.439       .  S
C1698      H1703   1.084       .  S
C1698      C1699   1.398       .  A
C1699      C1700   1.411       .  A
C1700      N1701   1.441       .  S
N1701      O1705   1.263       .  A
N1701      O1706   1.263       .  A
N1704      O1707   1.263       .  A
N1704      O1708   1.263       .  A
C1709      H1716   1.084       .  S
C1709      C1710   1.403       .  A
C1709      C1714   1.394       .  A
C1710      C1711   1.415   1_455  A
C1711      C1712   1.392   1_655  A
C1711      N1718   1.439       .  S
C1712      H1717   1.084       .  S
C1712      C1713   1.397       .  A
C1713      C1714   1.412       .  A
C1714      N1715   1.441       .  S
N1715      O1719   1.262       .  A
N1715      O1720   1.263       .  A
N1718      O1721   1.263       .  A
N1718      O1722   1.262       .  A
C1723      H1730   1.080       .  S
C1723      C1724   1.404       .  A
C1723      C1728   1.393       .  A
C1724      C1725   1.417       .  A
C1725      C1726   1.397       .  A
C1725      N1732   1.438       .  S
C1726      H1731   1.077       .  S
C1726      C1727   1.411       .  A
C1727      C1728   1.422       .  A
C1728      N1729   1.436       .  S
N1729      O1733   1.263       .  A
N1729      O1734   1.261       .  A
N1732      O1735   1.263       .  A
N1732      O1736   1.263       .  A
C1737      H1744   1.082       .  S
C1737      C1738   1.396       .  A
C1737      C1742   1.402   1_655  A
C1738      C1739   1.410       .  A
C1739      C1740   1.391       .  A
C1739      N1746   1.441       .  S
C1740      H1745   1.085       .  S
C1740      C1741   1.401       .  A
C1741      C1742   1.422   1_655  A
C1742      N1743   1.449       .  S
N1743      O1747   1.263       .  A
N1743      O1748   1.261       .  A
N1746      O1749   1.263       .  A
N1746      O1750   1.263       .  A
C1751      H1758   1.083       .  S
C1751      C1752   1.400       .  A
C1751      C1756   1.394   1_545  A
C1752      C1753   1.412       .  A
C1753      C1754   1.397       .  A
C1753      N1760   1.442       .  S
C1754      H1759   1.084       .  S
C1754      C1755   1.402       .  A
C1755      C1756   1.412   1_545  A
C1756      N1757   1.443       .  S
N1757      O1761   1.263       .  A
N1757      O1762   1.263       .  A
N1760      O1763   1.262       .  A
N1760      O1764   1.263       .  A
C1765      H1772   1.084       .  S
C1765      C1766   1.399       .  A
C1765      C1770   1.394       .  A
C1766      C1767   1.412       .  A
C1767      C1768   1.393       .  A
C1767      N1774   1.443       .  S
C1768      H1773   1.084       .  S
C1768      C1769   1.403       .  A
C1769      C1770   1.415       .  A
C1770      N1771   1.439       .  S
N1771      O1775   1.263       .  A
N1771      O1776   1.263       .  A
N1774      O1777   1.262       .  A
N1774      O1778   1.263       .  A
C1779      H1786   1.084       .  S
C1779      C1780   1.399       .  A
C1779      C1784   1.397       .  A
C1780      C1781   1.412       .  A
C1781      C1782   1.395       .  A
C1781      N1788   1.448       .  S
C1782      H1787   1.084       .  S
C1782      C1783   1.399       .  A
C1783      C1784   1.416       .  A
C1784      N1785   1.450       .  S
N1785      O1789   1.263       .  A
N1785      O1790   1.262       .  A
N1788      O1791   1.262       .  A
N1788      O1792   1.263       .  A
C1793      H1800   1.084   1_554  S
C1793      C1794   1.398       .  A
C1793      C1798   1.396       .  A
C1794      C1795   1.412       .  A
C1795      C1796   1.396       .  A
C1795      N1802   1.445       .  S
C1796      H1801   1.084       .  S
C1796      C1797   1.400       .  A
C1797      C1798   1.415       .  A
C1798      N1799   1.445       .  S
N1799      O1803   1.263   1_554  A
N1799      O1804   1.261       .  A
N1802      O1805   1.262       .  A
N1802      O1806   1.263       .  A
C1807      H1814   1.084       .  S
C1807      C1808   1.403       .  A
C1807      C1812   1.389       .  A
C1808      C1809   1.416       .  A
C1809      C1810   1.396       .  A
C1809      N1816   1.440       .  S
C1810      H1815   1.084       .  S
C1810      C1811   1.398       .  A
C1811      C1812   1.407       .  A
C1812      N1813   1.438       .  S
N1813      O1817   1.263       .  A
N1813      O1818   1.262       .  A
N1816      O1819   1.263       .  A
N1816      O1820   1.263       .  A
C1821      H1828   1.084       .  S
C1821      C1822   1.400       .  A
C1821      C1826   1.393       .  A
C1822      C1823   1.414       .  A
C1823      C1824   1.395       .  A
C1823      N1830   1.443       .  S
C1824      H1829   1.084       .  S
C1824      C1825   1.401       .  A
C1825      C1826   1.413       .  A
C1826      N1827   1.440       .  S
N1827      O1831   1.263       .  A
N1827      O1832   1.263       .  A
N1830      O1833   1.263       .  A
N1830      O1834   1.263       .  A
C1835      H1842   1.085       .  S
C1835      C1836   1.397       .  A
C1835      C1840   1.391       .  A
C1836      C1837   1.412       .  A
C1837      C1838   1.398       .  A
C1837      N1844   1.444   1_556  S
C1838      H1843   1.084       .  S
C1838      C1839   1.400       .  A
C1839      C1840   1.412       .  A
C1840      N1841   1.442       .  S
N1841      O1845   1.263       .  A
N1841      O1846   1.263       .  A
N1844      O1847   1.263       .  A
N1844      O1848   1.263       .  A
C1849      H1856   1.084       .  S
C1849      C1850   1.399       .  A
C1849      C1854   1.392       .  A
C1850      C1851   1.410       .  A
C1851      C1852   1.398       .  A
C1851      N1858   1.442       .  S
C1852      H1857   1.083       .  S
C1852      C1853   1.407       .  A
C1853      C1854   1.415       .  A
C1854      N1855   1.438       .  S
N1855      O1859   1.263       .  A
N1855      O1860   1.263       .  A
N1858      O1861   1.262       .  A
N1858      O1862   1.263       .  A
C1863      H1870   1.084       .  S
C1863      C1864   1.403       .  A
C1863      C1868   1.395       .  A
C1864      C1865   1.414       .  A
C1865      C1866   1.393       .  A
C1865      N1872   1.439       .  S
C1866      H1871   1.084       .  S
C1866      C1867   1.401       .  A
C1867      C1868   1.412       .  A
C1868      N1869   1.440       .  S
N1869      O1873   1.263       .  A
N1869      O1874   1.263       .  A
N1872      O1875   1.263       .  A
N1872      O1876   1.261       .  A
C1877      H1884   1.084       .  S
C1877      C1878   1.403   1_565  A
C1877      C1882   1.385       .  A
C1878      C1879   1.418       .  A
C1879      C1880   1.401   1_545  A
C1879      N1886   1.440       .  S
C1880      H1885   1.080       .  S
C1880      C1881   1.399       .  A
C1881      C1882   1.405       .  A
C1882      N1883   1.429       .  S
N1883      O1887   1.261       .  A
N1883      O1888   1.262       .  A
N1886      O1889   1.263       .  A
N1886      O1890   1.263       .  A
C1891      H1898   1.084       .  S
C1891      C1892   1.399       .  A
C1891      C1896   1.391       .  A
C1892      C1893   1.412       .  A
C1893      C1894   1.393       .  A
C1893      N1900   1.436       .  S
C1894      H1899   1.084       .  S
C1894      C1895   1.397       .  A
C1895      C1896   1.407       .  A
C1896      N1897   1.434       .  S
N1897      O1901   1.260       .  A
N1897      O1902   1.263       .  A
N1900      O1903   1.262       .  A
N1900      O1904   1.263       .  A
C1905      H1912   1.083       .  S
C1905      C1906   1.399       .  A
C1905      C1910   1.397       .  A
C1906      C1907   1.407       .  A
C1907      C1908   1.386       .  A
C1907      N1914   1.434       .  S
C1908      H1913   1.084       .  S
C1908      C1909   1.402       .  A
C1909      C1910   1.417       .  A
C1910      N1911   1.439       .  S
N1911      O1915   1.262       .  A
N1911      O1916   1.263       .  A
N1914      O1917   1.263       .  A
N1914      O1918   1.262       .  A
C1919      H1926   1.084   1_545  S
C1919      C1920   1.403       .  A
C1919      C1924   1.393       .  A
C1920      C1921   1.415       .  A
C1921      C1922   1.395       .  A
C1921      N1928   1.440       .  S
C1922      H1927   1.084       .  S
C1922      C1923   1.398       .  A
C1923      C1924   1.410       .  A
C1924      N1925   1.440       .  S
N1925      O1929   1.263   1_545  A
N1925      O1930   1.263       .  A
N1928      O1931   1.263       .  A
N1928      O1932   1.263       .  A
C1933      H1940   1.084       .  S
C1933      C1934   1.397       .  A
C1933      C1938   1.396       .  A
C1934      C1935   1.408       .  A
C1935      C1936   1.391       .  A
C1935      N1942   1.439       .  S
C1936      H1941   1.084       .  S
C1936      C1937   1.401       .  A
C1937      C1938   1.415       .  A
C1938      N1939   1.440       .  S
N1939      O1943   1.263       .  A
N1939      O1944   1.263       .  A
N1942      O1945   1.262       .  A
N1942      O1946   1.263       .  A
C1947      H1954   1.084       .  S
C1947      C1948   1.401       .  A
C1947      C1952   1.397       .  A
C1948      C1949   1.411       .  A
C1949      C1950   1.389       .  A
C1949      N1956   1.436       .  S
C1950      H1955   1.085       .  S
C1950      C1951   1.399       .  A
C1951      C1952   1.415       .  A
C1952      N1953   1.441       .  S
N1953      O1957   1.263       .  A
N1953      O1958   1.261       .  A
N1956      O1959   1.263       .  A
N1956      O1960   1.260       .  A
C1961      H1968   1.084       .  S
C1961      C1962   1.397       .  A
C1961      C1966   1.396       .  A
C1962      C1963   1.408       .  A
C1963      C1964   1.396       .  A
C1963      N1970   1.440       .  S
C1964      H1969   1.083       .  S
C1964      C1965   1.400       .  A
C1965      C1966   1.415       .  A
C1966      N1967   1.448       .  S
N1967      O1971   1.263       .  A
N1967      O1972   1.262       .  A
N1970      O1973   1.262       .  A
N1970      O1974   1.262       .  A
C1975      H1982   1.084       .  S
C1975      C1976   1.400       .  A
C1975      C1980   1.390       .  A
C1976      C1977   1.415       .  A
C1977      C1978   1.398       .  A
C1977      N1984   1.441       .  S
C1978      H1983   1.084       .  S
C1978      C1979   1.400       .  A
C1979      C1980   1.409       .  A
C1980      N1981   1.437       .  S
N1981      O1985   1.263       .  A
N1981      O1986   1.263       .  A
N1984      O1987   1.263       .  A
N1984      O1988   1.263       .  A
C1989      H1996   1.084       .  S
C1989      C1990   1.403       .  A
C1989      C1994   1.394       .  A
C1990      C1991   1.416       .  A
C1991      C1992   1.396       .  A
C1991      N1998   1.438       .  S
C1992      H1997   1.084       .  S
C1992      C1993   1.399       .  A
C1993      C1994   1.412       .  A
C1994      N1995   1.440       .  S
N1995      O1999   1.263       .  A
N1995      O2000   1.262       .  A
N1998      O2001   1.263       .  A
N1998      O2002   1.263       .  A
C2003      H2010   1.084       .  S
C2003      C2004   1.403       .  A
C2003      C2008   1.395       .  A
C2004      C2005   1.414       .  A
C2005      C2006   1.397       .  A
C2005      N2012   1.440       .  S
C2006      H2011   1.084       .  S
C2006      C2007   1.401       .  A
C2007      C2008   1.414       .  A
C2008      N2009   1.445       .  S
N2009      O2013   1.263       .  A
N2009      O2014   1.262       .  A
N2012      O2015   1.263       .  A
N2012      O2016   1.263       .  A
